
 ===================================================
  XFOIL Version 6.99
  Copyright (C) 2000   Mark Drela, Harold Youngren

  This software comes with ABSOLUTELY NO WARRANTY,
    subject to the GNU General Public License.

  Caveat computor
 ===================================================

 File  xfoil.def  not found

   QUIT    Exit program

  .OPER    Direct operating point(s)
  .MDES    Complex mapping design routine
  .QDES    Surface speed design routine
  .GDES    Geometry design routine

   SAVE f  Write airfoil to labeled coordinate file
   PSAV f  Write airfoil to plain coordinate file
   ISAV f  Write airfoil to ISES coordinate file
   MSAV f  Write airfoil to MSES coordinate file
   REVE    Reverse written-airfoil node ordering

   LOAD f  Read buffer airfoil from coordinate file
   NACA i  Set NACA 4,5-digit airfoil and buffer airfoil
   INTE    Set buffer airfoil by interpolating two airfoils
   NORM    Buffer airfoil normalization toggle
   XYCM rr Change CM reference location, currently  0.25000 0.00000

   BEND    Display structural properties of current airfoil

   PCOP    Set current-airfoil panel nodes directly from buffer airfoil points
   PANE    Set current-airfoil panel nodes ( 160 ) based on curvature
  .PPAR    Show/change paneling

  .PLOP    Plotting options

   WDEF f  Write  current-settings file
   RDEF f  Reread current-settings file
   NAME s  Specify new airfoil name
   NINC    Increment name version number

   Z       Zoom    | (available in all menus)
   U       Unzoom  | 

 XFOIL   c>   Max thickness =     0.120035  at x =   0.300
 Max camber    =     0.020000  at x =   0.402

 Buffer airfoil set using 331 points

 Blunt trailing edge.  Gap =  0.00252

 Paneling parameters used...
   Number of panel nodes       160
   Panel bunching parameter    1.000
   TE/LE panel density ratio   0.150
   Refined-area/LE panel density ratio    0.200
   Top    side refined area x/c limits  1.000 1.000
   Bottom side refined area x/c limits  1.000 1.000

 XFOIL   c>  
.OPERi   c>  
 M  =    0.0000
 Re =   1000000

.OPERv   c>   Current iteration limit:          10

Enter new iteration limit   i>  
.OPERv   c>  
 Polar  1 newly created for accumulation
 Airfoil archived with polar: NACA 2412                                       

Enter  polar save filename  OR  <return> for no file   s>  
 New polar save file available

Enter  polar dump filename  OR  <return> for no file   s>  
 New polar dump file available

 Polar accumulation enabled

.OPERva   c>  
Enter first alfa value (deg)   r>  
Enter last  alfa value (deg)   r>  
Enter alfa increment   (deg)   r>   Calculating unit vorticity distributions ...
 Calculating wake trajectory ...
 Calculating source influence matrix ...

 Solving BL system ...

 Initializing BL ...
    side            1  ...
 MRCHUE: Inverse mode at  59     Hk =   4.017
 MRCHUE: Inverse mode at  60     Hk =   4.662
 MRCHUE: Inverse mode at  61     Hk =   5.208
 MRCHUE: Inverse mode at  62     Hk =   5.518
    side            2  ...
 MRCHUE: Inverse mode at  28     Hk =   4.676
 MRCHUE: Inverse mode at  29     Hk =   6.212
 MRCHUE: Inverse mode at  30     Hk =   7.730
 MRCHUE: Inverse mode at  31     Hk =   9.274
 MRCHUE: Inverse mode at  32     Hk =   5.651
 MRCHUE: Inverse mode at  33     Hk =   2.500
 MRCHUE: Inverse mode at  50     Hk =   2.500
 MRCHUE: Inverse mode at  51     Hk =   2.500
 MRCHUE: Inverse mode at  52     Hk =   2.500
 MRCHUE: Inverse mode at  53     Hk =   2.500
 MRCHUE: Inverse mode at  54     Hk =   2.500
 MRCHUE: Inverse mode at  55     Hk =   2.500
 MRCHUE: Inverse mode at  56     Hk =   2.500
 MRCHUE: Inverse mode at  57     Hk =   2.500
 MRCHUE: Inverse mode at  58     Hk =   2.500
 MRCHUE: Inverse mode at  59     Hk =   2.500
 MRCHUE: Inverse mode at  60     Hk =   2.500
 MRCHUE: Inverse mode at  61     Hk =   2.500
 MRCHUE: Inverse mode at  62     Hk =   2.500
 MRCHUE: Inverse mode at  63     Hk =   2.500
 MRCHUE: Inverse mode at  64     Hk =   2.500
 MRCHUE: Inverse mode at  65     Hk =   2.500
 MRCHUE: Inverse mode at  66     Hk =   2.500
 MRCHUE: Inverse mode at  67     Hk =   2.500
 MRCHUE: Inverse mode at  68     Hk =   2.500
 MRCHUE: Inverse mode at  69     Hk =   2.500
 MRCHUE: Inverse mode at  70     Hk =   2.500
 MRCHUE: Inverse mode at  71     Hk =   2.500
 MRCHUE: Inverse mode at  72     Hk =   2.500
 MRCHUE: Inverse mode at  73     Hk =   2.500
 MRCHUE: Inverse mode at  74     Hk =   2.500
 MRCHUE: Inverse mode at  75     Hk =   2.500
 MRCHUE: Inverse mode at  76     Hk =   2.500
 MRCHUE: Inverse mode at  77     Hk =   2.500
 MRCHUE: Inverse mode at  78     Hk =   2.500
 MRCHUE: Inverse mode at  79     Hk =   2.500
 MRCHUE: Inverse mode at  80     Hk =   2.500
 MRCHUE: Inverse mode at  81     Hk =   2.500
 MRCHUE: Inverse mode at  82     Hk =   2.500
 MRCHUE: Inverse mode at  83     Hk =   2.500
 MRCHUE: Inverse mode at  84     Hk =   2.500
 MRCHUE: Inverse mode at  85     Hk =   2.500
 MRCHUE: Inverse mode at  86     Hk =   2.500
 MRCHUE: Inverse mode at  87     Hk =   2.500
 MRCHUE: Inverse mode at  88     Hk =   2.500
 MRCHUE: Inverse mode at  89     Hk =   2.500
 MRCHUE: Inverse mode at  90     Hk =   2.500
 MRCHUE: Inverse mode at  91     Hk =   2.500
 MRCHUE: Inverse mode at  92     Hk =   2.500
 MRCHUE: Inverse mode at  93     Hk =   2.500
 MRCHUE: Inverse mode at  94     Hk =   2.500
 MRCHUE: Convergence failed at  95  side 2    Res =  0.4335E+01
 MRCHUE: Inverse mode at  96     Hk =   2.500
 MRCHUE: Inverse mode at  97     Hk =   2.500
 MRCHUE: Inverse mode at  98     Hk =   2.500
 MRCHUE: Convergence failed at  99  side 2    Res =  0.4369E+01
 MRCHUE: Inverse mode at 100     Hk =   2.500

 MRCHDU: Convergence failed at  95  side 2    Res =  0.1343E+01
 MRCHDU: Convergence failed at  96  side 2    Res =  0.1489E+01
 MRCHDU: Convergence failed at  97  side 2    Res =  0.1532E+01
 MRCHDU: Convergence failed at  98  side 2    Res =  0.1574E+01
 MRCHDU: Convergence failed at  99  side 2    Res =  0.5370E+01
 MRCHDU: Convergence failed at 100  side 2    Res =  0.5244E+01
 Side 1 forced transition at x/c =  1.0000   62
 Side 2  free  transition at x/c =  0.0122   32

   1   rms: 0.9318E+00   max: -.7347E+01   C at   62  1   RLX: 0.068
       a =-17.000      CL = -1.9842
      Cm =  0.0561     CD =  0.01323   =>   CDf =  0.00281    CDp =  0.01043

 Side 1 forced transition at x/c =  1.0000   62
 Side 2  free  transition at x/c =  0.0123   32

   2   rms: 0.7619E+00   max: -.7926E+01   C at   62  1   RLX: 0.063
       a =-17.000      CL = -1.9528
      Cm =  0.0515     CD =  0.01480   =>   CDf =  0.00282    CDp =  0.01198

 Side 1 forced transition at x/c =  1.0000   62
 Side 2  free  transition at x/c =  0.0123   32

   3   rms: 0.7158E+00   max: -.5642E+01   C at   62  1   RLX: 0.089
       a =-17.000      CL = -1.9192
      Cm =  0.0491     CD =  0.01734   =>   CDf =  0.00278    CDp =  0.01455

 Side 1 forced transition at x/c =  1.0000   62
 Side 2  free  transition at x/c =  0.0122   32

   4   rms: 0.7612E+00   max: -.4366E+01   C at   62  1   RLX: 0.115
       a =-17.000      CL = -1.8792
      Cm =  0.0494     CD =  0.02139   =>   CDf =  0.00271    CDp =  0.01869

 Side 1 forced transition at x/c =  1.0000   62
 Side 2  free  transition at x/c =  0.0122   32

   5   rms: 0.2073E+01   max: -.6964E+01   D at   66  2   RLX: 0.072
       a =-17.000      CL = -1.8389
      Cm =  0.0198     CD =  0.01597   =>   CDf =  0.00258    CDp =  0.01340

 Side 1 forced transition at x/c =  1.0000   62
 Side 2  free  transition at x/c =  0.0122   32

   6   rms: 0.6282E+00   max: -.3140E+01   C at   62  1   RLX: 0.159
       a =-17.000      CL = -1.8227
      Cm =  0.0321     CD =  0.02472   =>   CDf =  0.00303    CDp =  0.02169

 Side 1 forced transition at x/c =  1.0000   62
 Side 2  free  transition at x/c =  0.0122   32

   7   rms: 0.1335E+01   max: -.5514E+01   C at   62  1   RLX: 0.091
       a =-17.000      CL = -1.7758
      Cm =  0.0427     CD =  0.03142   =>   CDf =  0.00289    CDp =  0.02853

 Side 1 forced transition at x/c =  1.0000   62
 Side 2  free  transition at x/c =  0.0123   32

   8   rms: 0.9076E+01   max: 0.3175E+02   D at   65  2   RLX: 0.047
       a =-17.000      CL = -1.7542
      Cm =  0.0988     CD =  0.05950   =>   CDf =  0.00314    CDp =  0.05636

 Side 1 forced transition at x/c =  1.0000   63
 Side 2  free  transition at x/c =  0.0125   31

   9   rms: 0.1984E+01   max: 0.6795E+01   D at   52  2   RLX: 0.171
       a =-17.000      CL = -1.5269
      Cm =  0.0928     CD =  0.07519   =>   CDf =  0.00265    CDp =  0.07254

 Side 1 forced transition at x/c =  1.0000   64
 Side 2  free  transition at x/c =  0.0130   30

  10   rms: 0.6116E+00   max: -.3327E+01   D at   45  2   RLX: 0.150
       a =-17.000      CL = -1.4604
      Cm =  0.0566     CD =  0.06403   =>   CDf =  0.00209    CDp =  0.06194

 Side 1 forced transition at x/c =  1.0000   64
 Side 2  free  transition at x/c =  0.0131   30

  11   rms: 0.3979E+00   max: 0.8370E+00   D at  104  2   RLX: 0.811
       a =-17.000      CL = -1.0468
      Cm = -0.0157     CD =  0.08997   =>   CDf =  0.00268    CDp =  0.08729

 Side 1 forced transition at x/c =  1.0000   65
 Side 2  free  transition at x/c =  0.0142   30

  12   rms: 0.3900E-01   max: 0.3043E+00   D at   30  2
       a =-17.000      CL = -1.0095
      Cm = -0.0287     CD =  0.09517   =>   CDf =  0.00267    CDp =  0.09250

 Side 1 forced transition at x/c =  1.0000   65
 Side 2  free  transition at x/c =  0.0143   30

  13   rms: 0.1046E-01   max: 0.6871E-01   D at   30  2
       a =-17.000      CL = -1.0104
      Cm = -0.0275     CD =  0.09602   =>   CDf =  0.00260    CDp =  0.09342

 Side 1 forced transition at x/c =  1.0000   65
 Side 2  free  transition at x/c =  0.0142   30

  14   rms: 0.4710E-02   max: 0.1597E-01   D at   46  2
       a =-17.000      CL = -1.0077
      Cm = -0.0273     CD =  0.09631   =>   CDf =  0.00258    CDp =  0.09373

 Side 1 forced transition at x/c =  1.0000   65
 Side 2  free  transition at x/c =  0.0143   30

  15   rms: 0.9290E-03   max: 0.3138E-02   D at  112  2
       a =-17.000      CL = -1.0070
      Cm = -0.0273     CD =  0.09624   =>   CDf =  0.00257    CDp =  0.09367

 Side 1 forced transition at x/c =  1.0000   65
 Side 2  free  transition at x/c =  0.0143   30

  16   rms: 0.1033E-03   max: 0.4429E-03   D at  112  2
       a =-17.000      CL = -1.0069
      Cm = -0.0273     CD =  0.09622   =>   CDf =  0.00257    CDp =  0.09365

 Side 1 forced transition at x/c =  1.0000   65
 Side 2  free  transition at x/c =  0.0143   30

  17   rms: 0.9171E-05   max: 0.3020E-04   D at  114  2
       a =-17.000      CL = -1.0069
      Cm = -0.0274     CD =  0.09622   =>   CDf =  0.00257    CDp =  0.09365
 plradd ia,ip,cpol            1           0  1.23152044E-03

 Point added to stored polar  1
 Point written to save file  polar_1.txt                                     
 Point written to dump file dump_1                                          
 Calculating wake trajectory ...
 Calculating source influence matrix ...

 Solving BL system ...

 Side 1 forced transition at x/c =  1.0000   65
 Side 2  free  transition at x/c =  0.0143   30

   1   rms: 0.4723E-01   max: -.2150E+00   D at   46  2   RLX: 0.681
       a =-16.800      CL = -1.0174
      Cm = -0.0305     CD =  0.09027   =>   CDf =  0.00257    CDp =  0.08770

 Side 1 forced transition at x/c =  1.0000   65
 Side 2  free  transition at x/c =  0.0143   30

   2   rms: 0.3036E-01   max: -.1139E+00   D at   47  2
       a =-16.800      CL = -1.0329
      Cm = -0.0324     CD =  0.08713   =>   CDf =  0.00263    CDp =  0.08449

 Side 1 forced transition at x/c =  1.0000   65
 Side 2  free  transition at x/c =  0.0143   30

   3   rms: 0.7430E-02   max: -.2762E-01   D at  111  2
       a =-16.800      CL = -1.0386
      Cm = -0.0323     CD =  0.08756   =>   CDf =  0.00268    CDp =  0.08487

 Side 1 forced transition at x/c =  1.0000   65
 Side 2  free  transition at x/c =  0.0142   30

   4   rms: 0.7242E-03   max: -.3341E-02   D at  110  2
       a =-16.800      CL = -1.0393
      Cm = -0.0322     CD =  0.08769   =>   CDf =  0.00269    CDp =  0.08500

 Side 1 forced transition at x/c =  1.0000   65
 Side 2  free  transition at x/c =  0.0142   30

   5   rms: 0.4036E-04   max: -.1986E-03   D at  111  2
       a =-16.800      CL = -1.0393
      Cm = -0.0322     CD =  0.08770   =>   CDf =  0.00269    CDp =  0.08501
 plradd ia,ip,cpol            2           0  1.23152044E-03

 Point added to stored polar  1
 Point written to save file  polar_1.txt                                     
 Point written to dump file dump_1                                          
 Calculating wake trajectory ...
 Calculating source influence matrix ...

 Solving BL system ...

 Side 1 forced transition at x/c =  1.0000   65
 Side 2  free  transition at x/c =  0.0142   30

   1   rms: 0.5850E-01   max: -.2584E+00   D at   47  2   RLX: 0.742
       a =-16.600      CL = -1.0543
      Cm = -0.0362     CD =  0.08048   =>   CDf =  0.00268    CDp =  0.07779

 Side 1 forced transition at x/c =  1.0000   65
 Side 2  free  transition at x/c =  0.0142   30

   2   rms: 0.2172E-01   max: -.6766E-01   D at   47  2
       a =-16.600      CL = -1.0666
      Cm = -0.0372     CD =  0.07903   =>   CDf =  0.00278    CDp =  0.07626

 Side 1 forced transition at x/c =  1.0000   65
 Side 2  free  transition at x/c =  0.0142   30

   3   rms: 0.5814E-02   max: -.2049E-01   D at  110  2
       a =-16.600      CL = -1.0710
      Cm = -0.0371     CD =  0.07921   =>   CDf =  0.00281    CDp =  0.07640

 Side 1 forced transition at x/c =  1.0000   65
 Side 2  free  transition at x/c =  0.0142   30

   4   rms: 0.7530E-03   max: -.3374E-02   D at  110  2
       a =-16.600      CL = -1.0716
      Cm = -0.0371     CD =  0.07927   =>   CDf =  0.00281    CDp =  0.07646

 Side 1 forced transition at x/c =  1.0000   65
 Side 2  free  transition at x/c =  0.0141   30

   5   rms: 0.6393E-04   max: -.2926E-03   D at  110  2
       a =-16.600      CL = -1.0716
      Cm = -0.0371     CD =  0.07928   =>   CDf =  0.00281    CDp =  0.07647
 plradd ia,ip,cpol            3           0  1.23152044E-03

 Point added to stored polar  1
 Point written to save file  polar_1.txt                                     
 Point written to dump file dump_1                                          
 Calculating wake trajectory ...
 Calculating source influence matrix ...

 Solving BL system ...

 Side 1 forced transition at x/c =  1.0000   65
 Side 2  free  transition at x/c =  0.0141   30

   1   rms: 0.5804E-01   max: -.2502E+00   D at   49  2   RLX: 0.807
       a =-16.400      CL = -1.0866
      Cm = -0.0413     CD =  0.07193   =>   CDf =  0.00281    CDp =  0.06912

 Side 1 forced transition at x/c =  1.0000   65
 Side 2  free  transition at x/c =  0.0142   30

   2   rms: 0.2044E-01   max: -.6305E-01   D at  114  2
       a =-16.400      CL = -1.0986
      Cm = -0.0420     CD =  0.07100   =>   CDf =  0.00291    CDp =  0.06809

 Side 1 forced transition at x/c =  1.0000   65
 Side 2  free  transition at x/c =  0.0141   30

   3   rms: 0.4518E-02   max: -.1534E-01   D at  109  2
       a =-16.400      CL = -1.1019
      Cm = -0.0420     CD =  0.07110   =>   CDf =  0.00294    CDp =  0.06816

 Side 1 forced transition at x/c =  1.0000   65
 Side 2  free  transition at x/c =  0.0141   30

   4   rms: 0.5473E-03   max: -.2243E-02   D at  109  2
       a =-16.400      CL = -1.1023
      Cm = -0.0419     CD =  0.07114   =>   CDf =  0.00294    CDp =  0.06820

 Side 1 forced transition at x/c =  1.0000   65
 Side 2  free  transition at x/c =  0.0141   30

   5   rms: 0.2916E-04   max: -.1447E-03   D at  109  2
       a =-16.400      CL = -1.1024
      Cm = -0.0419     CD =  0.07115   =>   CDf =  0.00294    CDp =  0.06821
 plradd ia,ip,cpol            4           0  1.23152044E-03

 Point added to stored polar  1
 Point written to save file  polar_1.txt                                     
 Point written to dump file dump_1                                          
 Calculating wake trajectory ...
 Calculating source influence matrix ...

 Solving BL system ...

 Side 1 forced transition at x/c =  1.0000   65
 Side 2  free  transition at x/c =  0.0141   30

   1   rms: 0.5768E-01   max: -.2442E+00   D at   52  2   RLX: 0.880
       a =-16.200      CL = -1.1163
      Cm = -0.0465     CD =  0.06379   =>   CDf =  0.00294    CDp =  0.06085

 Side 1 forced transition at x/c =  1.0000   65
 Side 2  free  transition at x/c =  0.0141   30

   2   rms: 0.1793E-01   max: -.5654E-01   D at  113  2
       a =-16.200      CL = -1.1265
      Cm = -0.0469     CD =  0.06334   =>   CDf =  0.00305    CDp =  0.06030

 Side 1 forced transition at x/c =  1.0000   65
 Side 2  free  transition at x/c =  0.0141   30

   3   rms: 0.3223E-02   max: -.1225E-01   D at  109  2
       a =-16.200      CL = -1.1290
      Cm = -0.0468     CD =  0.06348   =>   CDf =  0.00307    CDp =  0.06042

 Side 1 forced transition at x/c =  1.0000   65
 Side 2  free  transition at x/c =  0.0141   30

   4   rms: 0.2543E-03   max: -.1099E-02   D at  108  2
       a =-16.200      CL = -1.1292
      Cm = -0.0468     CD =  0.06351   =>   CDf =  0.00307    CDp =  0.06044

 Side 1 forced transition at x/c =  1.0000   65
 Side 2  free  transition at x/c =  0.0141   30

   5   rms: 0.9734E-05   max: 0.4765E-04   D at  112  2
       a =-16.200      CL = -1.1293
      Cm = -0.0468     CD =  0.06351   =>   CDf =  0.00307    CDp =  0.06044
 plradd ia,ip,cpol            5           0  1.23152044E-03

 Point added to stored polar  1
 Point written to save file  polar_1.txt                                     
 Point written to dump file dump_1                                          
 Calculating wake trajectory ...
 Calculating source influence matrix ...

 Solving BL system ...

 Side 1 forced transition at x/c =  1.0000   65
 Side 2  free  transition at x/c =  0.0141   30

   1   rms: 0.5906E-01   max: -.2455E+00   D at   54  2   RLX: 0.961
       a =-16.000      CL = -1.1417
      Cm = -0.0517     CD =  0.05605   =>   CDf =  0.00307    CDp =  0.05298

 Side 1 forced transition at x/c =  1.0000   65
 Side 2  free  transition at x/c =  0.0141   30

   2   rms: 0.1516E-01   max: -.4769E-01   D at  108  2
       a =-16.000      CL = -1.1501
      Cm = -0.0519     CD =  0.05611   =>   CDf =  0.00320    CDp =  0.05292

 Side 1 forced transition at x/c =  1.0000   65
 Side 2  free  transition at x/c =  0.0140   30

   3   rms: 0.1767E-02   max: -.8905E-02   D at  108  2
       a =-16.000      CL = -1.1517
      Cm = -0.0518     CD =  0.05628   =>   CDf =  0.00321    CDp =  0.05307

 Side 1 forced transition at x/c =  1.0000   65
 Side 2  free  transition at x/c =  0.0140   30

   4   rms: 0.8725E-04   max: 0.4078E-03   D at   58  2
       a =-16.000      CL = -1.1518
      Cm = -0.0517     CD =  0.05630   =>   CDf =  0.00321    CDp =  0.05309
 plradd ia,ip,cpol            6           0  1.23152044E-03

 Point added to stored polar  1
 Point written to save file  polar_1.txt                                     
 Point written to dump file dump_1                                          
 Calculating wake trajectory ...
 Calculating source influence matrix ...

 Solving BL system ...

 Side 1 forced transition at x/c =  1.0000   65
 Side 2  free  transition at x/c =  0.0140   30

   1   rms: 0.5838E-01   max: -.2387E+00   D at   58  2
       a =-15.800      CL = -1.1605
      Cm = -0.0569     CD =  0.04933   =>   CDf =  0.00320    CDp =  0.04612

 Side 1 forced transition at x/c =  1.0000   65
 Side 2  free  transition at x/c =  0.0141   30

   2   rms: 0.1336E-01   max: -.4181E-01   D at  108  2
       a =-15.800      CL = -1.1679
      Cm = -0.0569     CD =  0.04967   =>   CDf =  0.00334    CDp =  0.04633

 Side 1 forced transition at x/c =  1.0000   65
 Side 2  free  transition at x/c =  0.0140   30

   3   rms: 0.1268E-02   max: -.5584E-02   D at  107  2
       a =-15.800      CL = -1.1690
      Cm = -0.0568     CD =  0.04976   =>   CDf =  0.00335    CDp =  0.04641

 Side 1 forced transition at x/c =  1.0000   65
 Side 2  free  transition at x/c =  0.0140   30

   4   rms: 0.5617E-04   max: -.2477E-03   D at  107  2
       a =-15.800      CL = -1.1690
      Cm = -0.0568     CD =  0.04977   =>   CDf =  0.00335    CDp =  0.04642
 plradd ia,ip,cpol            7           0  1.23152044E-03

 Point added to stored polar  1
 Point written to save file  polar_1.txt                                     
 Point written to dump file dump_1                                          
 Calculating wake trajectory ...
 Calculating source influence matrix ...

 Solving BL system ...

 Side 1 forced transition at x/c =  1.0000   65
 Side 2  free  transition at x/c =  0.0140   30

   1   rms: 0.5665E-01   max: -.2262E+00   D at   63  2
       a =-15.600      CL = -1.1741
      Cm = -0.0618     CD =  0.04371   =>   CDf =  0.00334    CDp =  0.04036

 Side 1 forced transition at x/c =  1.0000   65
 Side 2  free  transition at x/c =  0.0141   30

   2   rms: 0.1063E-01   max: -.3739E-01   D at  107  2
       a =-15.600      CL = -1.1803
      Cm = -0.0614     CD =  0.04423   =>   CDf =  0.00348    CDp =  0.04075

 Side 1 forced transition at x/c =  1.0000   65
 Side 2  free  transition at x/c =  0.0141   30

   3   rms: 0.6596E-03   max: -.3693E-02   D at  107  2
       a =-15.600      CL = -1.1809
      Cm = -0.0613     CD =  0.04430   =>   CDf =  0.00348    CDp =  0.04081

 Side 1 forced transition at x/c =  1.0000   65
 Side 2  free  transition at x/c =  0.0141   30

   4   rms: 0.2860E-04   max: 0.1718E-03   D at  110  2
       a =-15.600      CL = -1.1809
      Cm = -0.0613     CD =  0.04430   =>   CDf =  0.00348    CDp =  0.04082
 plradd ia,ip,cpol            8           0  1.23152044E-03

 Point added to stored polar  1
 Point written to save file  polar_1.txt                                     
 Point written to dump file dump_1                                          
 Calculating wake trajectory ...
 Calculating source influence matrix ...

 Solving BL system ...

 Side 1 forced transition at x/c =  1.0000   65
 Side 2  free  transition at x/c =  0.0141   30

   1   rms: 0.5220E-01   max: -.2008E+00   D at   68  2
       a =-15.400      CL = -1.1835
      Cm = -0.0656     CD =  0.03936   =>   CDf =  0.00348    CDp =  0.03588

 Side 1 forced transition at x/c =  1.0000   65
 Side 2  free  transition at x/c =  0.0142   30

   2   rms: 0.7949E-02   max: -.2821E-01   D at  106  2
       a =-15.400      CL = -1.1885
      Cm = -0.0650     CD =  0.03988   =>   CDf =  0.00361    CDp =  0.03627

 Side 1 forced transition at x/c =  1.0000   65
 Side 2  free  transition at x/c =  0.0141   30

   3   rms: 0.2929E-03   max: 0.2296E-02   D at   73  2
       a =-15.400      CL = -1.1889
      Cm = -0.0650     CD =  0.03990   =>   CDf =  0.00361    CDp =  0.03630

 Side 1 forced transition at x/c =  1.0000   65
 Side 2  free  transition at x/c =  0.0141   30

   4   rms: 0.1297E-04   max: 0.7691E-04   D at  110  2
       a =-15.400      CL = -1.1889
      Cm = -0.0650     CD =  0.03990   =>   CDf =  0.00361    CDp =  0.03630
 plradd ia,ip,cpol            9           0  1.23152044E-03

 Point added to stored polar  1
 Point written to save file  polar_1.txt                                     
 Point written to dump file dump_1                                          
 Calculating wake trajectory ...
 Calculating source influence matrix ...

 Solving BL system ...

 Side 1 forced transition at x/c =  1.0000   65
 Side 2  free  transition at x/c =  0.0141   30

   1   rms: 0.4632E-01   max: -.1718E+00   D at   72  2
       a =-15.200      CL = -1.1898
      Cm = -0.0681     CD =  0.03608   =>   CDf =  0.00360    CDp =  0.03248

 Side 1 forced transition at x/c =  1.0000   65
 Side 2  free  transition at x/c =  0.0142   30

   2   rms: 0.5180E-02   max: -.2003E-01   D at  106  2
       a =-15.200      CL = -1.1935
      Cm = -0.0674     CD =  0.03653   =>   CDf =  0.00372    CDp =  0.03281

 Side 1 forced transition at x/c =  1.0000   65
 Side 2  free  transition at x/c =  0.0142   30

   3   rms: 0.1318E-03   max: 0.1329E-02   D at  106  2
       a =-15.200      CL = -1.1936
      Cm = -0.0674     CD =  0.03653   =>   CDf =  0.00372    CDp =  0.03281

 Side 1 forced transition at x/c =  1.0000   65
 Side 2  free  transition at x/c =  0.0142   30

   4   rms: 0.2446E-05   max: 0.1860E-04   D at  109  2
       a =-15.200      CL = -1.1936
      Cm = -0.0674     CD =  0.03653   =>   CDf =  0.00372    CDp =  0.03281
 plradd ia,ip,cpol           10           0  1.23152044E-03

 Point added to stored polar  1
 Point written to save file  polar_1.txt                                     
 Point written to dump file dump_1                                          
 Calculating wake trajectory ...
 Calculating source influence matrix ...

 Solving BL system ...

 Side 1 forced transition at x/c =  1.0000   65
 Side 2  free  transition at x/c =  0.0142   30

   1   rms: 0.4045E-01   max: -.1442E+00   D at   77  2
       a =-15.000      CL = -1.1929
      Cm = -0.0693     CD =  0.03364   =>   CDf =  0.00371    CDp =  0.02993

 Side 1 forced transition at x/c =  1.0000   65
 Side 2  free  transition at x/c =  0.0143   30

   2   rms: 0.3029E-02   max: 0.1341E-01   D at   80  2
       a =-15.000      CL = -1.1953
      Cm = -0.0687     CD =  0.03400   =>   CDf =  0.00381    CDp =  0.03019

 Side 1 forced transition at x/c =  1.0000   65
 Side 2  free  transition at x/c =  0.0143   30

   3   rms: 0.7369E-04   max: 0.5275E-03   D at  109  2
       a =-15.000      CL = -1.1954
      Cm = -0.0687     CD =  0.03399   =>   CDf =  0.00381    CDp =  0.03018
 plradd ia,ip,cpol           11           0  1.23152044E-03

 Point added to stored polar  1
 Point written to save file  polar_1.txt                                     
 Point written to dump file dump_1                                          
 Calculating wake trajectory ...
 Calculating source influence matrix ...

 Solving BL system ...

 Side 1 forced transition at x/c =  1.0000   65
 Side 2  free  transition at x/c =  0.0143   30

   1   rms: 0.3595E-01   max: -.1226E+00   D at   81  2
       a =-14.800      CL = -1.1937
      Cm = -0.0696     CD =  0.03179   =>   CDf =  0.00381    CDp =  0.02798

 Side 1 forced transition at x/c =  1.0000   65
 Side 2  free  transition at x/c =  0.0144   30

   2   rms: 0.2071E-02   max: 0.1310E-01   D at   83  2
       a =-14.800      CL = -1.1954
      Cm = -0.0691     CD =  0.03202   =>   CDf =  0.00390    CDp =  0.02812

 Side 1 forced transition at x/c =  1.0000   65
 Side 2  free  transition at x/c =  0.0144   30

   3   rms: 0.6828E-04   max: -.2660E-03   D at   88  2
       a =-14.800      CL = -1.1955
      Cm = -0.0691     CD =  0.03201   =>   CDf =  0.00389    CDp =  0.02811
 plradd ia,ip,cpol           12           0  1.23152044E-03

 Point added to stored polar  1
 Point written to save file  polar_1.txt                                     
 Point written to dump file dump_1                                          
 Calculating wake trajectory ...
 Calculating source influence matrix ...

 Solving BL system ...

 Side 1 forced transition at x/c =  1.0000   65
 Side 2  free  transition at x/c =  0.0144   30

   1   rms: 0.3239E-01   max: -.1042E+00   D at   83  2
       a =-14.600      CL = -1.1925
      Cm = -0.0692     CD =  0.03030   =>   CDf =  0.00389    CDp =  0.02641

 Side 1 forced transition at x/c =  1.0000   65
 Side 2  free  transition at x/c =  0.0146   30

   2   rms: 0.1697E-02   max: 0.1046E-01   D at   86  2
       a =-14.600      CL = -1.1939
      Cm = -0.0687     CD =  0.03045   =>   CDf =  0.00397    CDp =  0.02648

 Side 1 forced transition at x/c =  1.0000   65
 Side 2  free  transition at x/c =  0.0146   30

   3   rms: 0.5586E-04   max: -.2322E-03   D at   91  2
       a =-14.600      CL = -1.1940
      Cm = -0.0687     CD =  0.03045   =>   CDf =  0.00397    CDp =  0.02647
 plradd ia,ip,cpol           13           0  1.23152044E-03

 Point added to stored polar  1
 Point written to save file  polar_1.txt                                     
 Point written to dump file dump_1                                          
 Calculating wake trajectory ...
 Calculating source influence matrix ...

 Solving BL system ...

 Side 1 forced transition at x/c =  1.0000   65
 Side 2  free  transition at x/c =  0.0146   30

   1   rms: 0.3005E-01   max: 0.1151E+00   C at   65  1
       a =-14.400      CL = -1.1901
      Cm = -0.0683     CD =  0.02908   =>   CDf =  0.00397    CDp =  0.02511

 Side 1 forced transition at x/c =  1.0000   65
 Side 2  free  transition at x/c =  0.0147   30

   2   rms: 0.1505E-02   max: 0.1292E-01   C at   65  1
       a =-14.400      CL = -1.1912
      Cm = -0.0679     CD =  0.02918   =>   CDf =  0.00405    CDp =  0.02513

 Side 1 forced transition at x/c =  1.0000   65
 Side 2  free  transition at x/c =  0.0147   30

   3   rms: 0.4858E-04   max: 0.2700E-03   C at   65  1
       a =-14.400      CL = -1.1913
      Cm = -0.0679     CD =  0.02917   =>   CDf =  0.00405    CDp =  0.02513
 plradd ia,ip,cpol           14           0  1.23152044E-03

 Point added to stored polar  1
 Point written to save file  polar_1.txt                                     
 Point written to dump file dump_1                                          
 Calculating wake trajectory ...
 Calculating source influence matrix ...

 Solving BL system ...

 Side 1 forced transition at x/c =  1.0000   65
 Side 2  free  transition at x/c =  0.0147   30

   1   rms: 0.2851E-01   max: 0.1344E+00   C at   65  1
       a =-14.200      CL = -1.1869
      Cm = -0.0669     CD =  0.02803   =>   CDf =  0.00404    CDp =  0.02399

 Side 1 forced transition at x/c =  1.0000   65
 Side 2  free  transition at x/c =  0.0149   30

   2   rms: 0.1521E-02   max: 0.1944E-01   C at   65  1
       a =-14.200      CL = -1.1879
      Cm = -0.0665     CD =  0.02810   =>   CDf =  0.00412    CDp =  0.02399

 Side 1 forced transition at x/c =  1.0000   65
 Side 2  free  transition at x/c =  0.0148   30

   3   rms: 0.5651E-04   max: 0.3780E-03   C at   65  1
       a =-14.200      CL = -1.1879
      Cm = -0.0665     CD =  0.02810   =>   CDf =  0.00412    CDp =  0.02398
 plradd ia,ip,cpol           15           0  1.23152044E-03

 Point added to stored polar  1
 Point written to save file  polar_1.txt                                     
 Point written to dump file dump_1                                          
 Calculating wake trajectory ...
 Calculating source influence matrix ...

 Solving BL system ...

 Side 1 forced transition at x/c =  1.0000   65
 Side 2  free  transition at x/c =  0.0148   30

   1   rms: 0.2757E-01   max: 0.1635E+00   C at   65  1
       a =-14.000      CL = -1.1832
      Cm = -0.0651     CD =  0.02713   =>   CDf =  0.00411    CDp =  0.02301

 Side 1 forced transition at x/c =  1.0000   65
 Side 2  free  transition at x/c =  0.0150   30

   2   rms: 0.1213E-02   max: 0.1644E-01   C at   65  1
       a =-14.000      CL = -1.1840
      Cm = -0.0648     CD =  0.02717   =>   CDf =  0.00418    CDp =  0.02298

 Side 1 forced transition at x/c =  1.0000   65
 Side 2  free  transition at x/c =  0.0150   30

   3   rms: 0.3849E-04   max: 0.4901E-03   C at   65  1
       a =-14.000      CL = -1.1840
      Cm = -0.0648     CD =  0.02717   =>   CDf =  0.00419    CDp =  0.02299
 plradd ia,ip,cpol           16           0  1.23152044E-03

 Point added to stored polar  1
 Point written to save file  polar_1.txt                                     
 Point written to dump file dump_1                                          
 Calculating wake trajectory ...
 Calculating source influence matrix ...

 Solving BL system ...

 Side 1 forced transition at x/c =  1.0000   65
 Side 2  free  transition at x/c =  0.0150   30

   1   rms: 0.2692E-01   max: 0.1621E+00   C at   65  1
       a =-13.800      CL = -1.1777
      Cm = -0.0632     CD =  0.02632   =>   CDf =  0.00418    CDp =  0.02214

 Side 1 forced transition at x/c =  1.0000   65
 Side 2  free  transition at x/c =  0.0152   30

   2   rms: 0.2714E-02   max: -.2003E-01   C at   65  1
       a =-13.800      CL = -1.1764
      Cm = -0.0634     CD =  0.02631   =>   CDf =  0.00425    CDp =  0.02206

 Side 1 forced transition at x/c =  1.0000   65
 Side 2  free  transition at x/c =  0.0152   30

   3   rms: 0.3596E-04   max: 0.5192E-03   C at   65  1
       a =-13.800      CL = -1.1764
      Cm = -0.0634     CD =  0.02632   =>   CDf =  0.00425    CDp =  0.02206
 plradd ia,ip,cpol           17           0  2.16370123E-03

 Point added to stored polar  1
 Point written to save file  polar_1.txt                                     
 Point written to dump file dump_1                                          
 Calculating wake trajectory ...
 Calculating source influence matrix ...

 Solving BL system ...

 Side 1 forced transition at x/c =  1.0000   65
 Side 2  free  transition at x/c =  0.0152   30

   1   rms: 0.2751E-01   max: 0.1259E+00   C at   65  1
       a =-13.600      CL = -1.1670
      Cm = -0.0623     CD =  0.02548   =>   CDf =  0.00425    CDp =  0.02123

 Side 1 forced transition at x/c =  1.0000   65
 Side 2  free  transition at x/c =  0.0154   30

   2   rms: 0.8121E-03   max: 0.8965E-02   C at   65  1
       a =-13.600      CL = -1.1669
      Cm = -0.0623     CD =  0.02549   =>   CDf =  0.00432    CDp =  0.02117

 Side 1 forced transition at x/c =  1.0000   65
 Side 2  free  transition at x/c =  0.0154   30

   3   rms: 0.2569E-04   max: 0.2439E-03   C at   65  1
       a =-13.600      CL = -1.1670
      Cm = -0.0623     CD =  0.02549   =>   CDf =  0.00432    CDp =  0.02117
 plradd ia,ip,cpol           18           0  2.16370123E-03

 Point added to stored polar  1
 Point written to save file  polar_1.txt                                     
 Point written to dump file dump_1                                          
 Calculating wake trajectory ...
 Calculating source influence matrix ...

 Solving BL system ...

 Side 1 forced transition at x/c =  1.0000   65
 Side 2  free  transition at x/c =  0.0154   30

   1   rms: 0.2767E-01   max: 0.1280E+00   C at   65  1
       a =-13.400      CL = -1.1565
      Cm = -0.0612     CD =  0.02471   =>   CDf =  0.00464    CDp =  0.02007

 Side 1 forced transition at x/c =  1.0000   66
 Side 2  free  transition at x/c =  0.0156   29

   2   rms: 0.1622E-02   max: -.2277E-01   T at    2  1
       a =-13.400      CL = -1.1566
      Cm = -0.0611     CD =  0.02473   =>   CDf =  0.00440    CDp =  0.02033

 Side 1 forced transition at x/c =  1.0000   66
 Side 2  free  transition at x/c =  0.0156   29

   3   rms: 0.1971E-03   max: 0.2163E-02   D at    4  1
       a =-13.400      CL = -1.1566
      Cm = -0.0611     CD =  0.02473   =>   CDf =  0.00440    CDp =  0.02032

 Side 1 forced transition at x/c =  1.0000   66
 Side 2  free  transition at x/c =  0.0156   29

   4   rms: 0.9465E-06   max: 0.3081E-05   D at   30  2
       a =-13.400      CL = -1.1566
      Cm = -0.0611     CD =  0.02473   =>   CDf =  0.00440    CDp =  0.02032
 plradd ia,ip,cpol           19           0  2.16370123E-03

 Point added to stored polar  1
 Point written to save file  polar_1.txt                                     
 Point written to dump file dump_1                                          
 Calculating wake trajectory ...
 Calculating source influence matrix ...

 Solving BL system ...

 Side 1 forced transition at x/c =  1.0000   66
 Side 2  free  transition at x/c =  0.0156   29

   1   rms: 0.2784E-01   max: 0.1315E+00   C at   66  1
       a =-13.200      CL = -1.1455
      Cm = -0.0600     CD =  0.02399   =>   CDf =  0.00440    CDp =  0.01959

 Side 1 forced transition at x/c =  1.0000   66
 Side 2  free  transition at x/c =  0.0158   29

   2   rms: 0.8116E-03   max: 0.1378E-01   C at   66  1
       a =-13.200      CL = -1.1456
      Cm = -0.0599     CD =  0.02401   =>   CDf =  0.00447    CDp =  0.01954

 Side 1 forced transition at x/c =  1.0000   66
 Side 2  free  transition at x/c =  0.0158   29

   3   rms: 0.2121E-04   max: 0.2978E-03   C at   66  1
       a =-13.200      CL = -1.1456
      Cm = -0.0599     CD =  0.02401   =>   CDf =  0.00448    CDp =  0.01954
 plradd ia,ip,cpol           20           0  2.16370123E-03

 Point added to stored polar  1
 Point written to save file  polar_1.txt                                     
 Point written to dump file dump_1                                          
 Calculating wake trajectory ...
 Calculating source influence matrix ...

 Solving BL system ...

 Side 1 forced transition at x/c =  1.0000   66
 Side 2  free  transition at x/c =  0.0158   29

   1   rms: 0.2778E-01   max: 0.1369E+00   C at   66  1
       a =-13.000      CL = -1.1341
      Cm = -0.0587     CD =  0.02332   =>   CDf =  0.00447    CDp =  0.01885

 Side 1 forced transition at x/c =  1.0000   66
 Side 2  free  transition at x/c =  0.0160   29

   2   rms: 0.8693E-03   max: 0.1629E-01   C at   66  1
       a =-13.000      CL = -1.1341
      Cm = -0.0587     CD =  0.02335   =>   CDf =  0.00455    CDp =  0.01881

 Side 1 forced transition at x/c =  1.0000   66
 Side 2  free  transition at x/c =  0.0160   29

   3   rms: 0.2495E-04   max: 0.3675E-03   C at   66  1
       a =-13.000      CL = -1.1341
      Cm = -0.0587     CD =  0.02335   =>   CDf =  0.00455    CDp =  0.01881
 plradd ia,ip,cpol           21           0  2.16370123E-03

 Point added to stored polar  1
 Point written to save file  polar_1.txt                                     
 Point written to dump file dump_1                                          
 Calculating wake trajectory ...
 Calculating source influence matrix ...

 Solving BL system ...

 Side 1 forced transition at x/c =  1.0000   66
 Side 2  free  transition at x/c =  0.0160   29

   1   rms: 0.2772E-01   max: 0.1432E+00   C at   66  1
       a =-12.800      CL = -1.1222
      Cm = -0.0574     CD =  0.02273   =>   CDf =  0.00455    CDp =  0.01818

 Side 1 forced transition at x/c =  1.0000   66
 Side 2  free  transition at x/c =  0.0162   29

   2   rms: 0.9545E-03   max: 0.1700E-01   C at   66  1
       a =-12.800      CL = -1.1223
      Cm = -0.0574     CD =  0.02276   =>   CDf =  0.00462    CDp =  0.01815

 Side 1 forced transition at x/c =  1.0000   66
 Side 2  free  transition at x/c =  0.0162   29

   3   rms: 0.2726E-04   max: 0.3865E-03   C at   66  1
       a =-12.800      CL = -1.1223
      Cm = -0.0574     CD =  0.02276   =>   CDf =  0.00462    CDp =  0.01815
 plradd ia,ip,cpol           22           0  2.16370123E-03

 Point added to stored polar  1
 Point written to save file  polar_1.txt                                     
 Point written to dump file dump_1                                          
 Calculating wake trajectory ...
 Calculating source influence matrix ...

 Solving BL system ...

 Side 1 forced transition at x/c =  1.0000   66
 Side 2  free  transition at x/c =  0.0162   29

   1   rms: 0.2756E-01   max: 0.1464E+00   C at   66  1
       a =-12.600      CL = -1.1100
      Cm = -0.0561     CD =  0.02220   =>   CDf =  0.00462    CDp =  0.01759

 Side 1 forced transition at x/c =  1.0000   66
 Side 2  free  transition at x/c =  0.0163   29

   2   rms: 0.1116E-02   max: 0.1258E-01   C at   66  1
       a =-12.600      CL = -1.1099
      Cm = -0.0560     CD =  0.02226   =>   CDf =  0.00469    CDp =  0.01757

 Side 1 forced transition at x/c =  1.0000   66
 Side 2  free  transition at x/c =  0.0163   29

   3   rms: 0.1579E-04   max: 0.1821E-03   C at   66  1
       a =-12.600      CL = -1.1099
      Cm = -0.0560     CD =  0.02225   =>   CDf =  0.00468    CDp =  0.01757
 plradd ia,ip,cpol           23           0  2.16370123E-03

 Point added to stored polar  1
 Point written to save file  polar_1.txt                                     
 Point written to dump file dump_1                                          
 Calculating wake trajectory ...
 Calculating source influence matrix ...

 Solving BL system ...

 Side 1 forced transition at x/c =  1.0000   66
 Side 2  free  transition at x/c =  0.0163   29

   1   rms: 0.2738E-01   max: -.7901E-01   T at   29  2
       a =-12.400      CL = -1.0968
      Cm = -0.0548     CD =  0.02179   =>   CDf =  0.00468    CDp =  0.01711

 Side 1 forced transition at x/c =  1.0000   66
 Side 2  free  transition at x/c =  0.0165   30

   2   rms: 0.1467E-01   max: 0.5898E-01   D at   30  2
       a =-12.400      CL = -1.1020
      Cm = -0.0541     CD =  0.02142   =>   CDf =  0.00480    CDp =  0.01662

 Side 1 forced transition at x/c =  1.0000   66
 Side 2  free  transition at x/c =  0.0166   30

   3   rms: 0.4282E-03   max: -.4976E-02   C at   66  1
       a =-12.400      CL = -1.1017
      Cm = -0.0542     CD =  0.02141   =>   CDf =  0.00476    CDp =  0.01664

 Side 1 forced transition at x/c =  1.0000   66
 Side 2  free  transition at x/c =  0.0166   30

   4   rms: 0.4453E-05   max: -.2453E-04   C at   66  1
       a =-12.400      CL = -1.1017
      Cm = -0.0542     CD =  0.02141   =>   CDf =  0.00476    CDp =  0.01664
 plradd ia,ip,cpol           24           0  2.16370123E-03

 Point added to stored polar  1
 Point written to save file  polar_1.txt                                     
 Point written to dump file dump_1                                          
 Calculating wake trajectory ...
 Calculating source influence matrix ...

 Solving BL system ...

 Side 1 forced transition at x/c =  1.0000   66
 Side 2  free  transition at x/c =  0.0166   30

   1   rms: 0.4066E-01   max: 0.1882E+00   C at   66  1
       a =-12.200      CL = -1.0985
      Cm = -0.0517     CD =  0.02011   =>   CDf =  0.00476    CDp =  0.01535

 Side 1 forced transition at x/c =  1.0000   66
 Side 2  free  transition at x/c =  0.0171   30

   2   rms: 0.8367E-02   max: 0.2173E-01   T at   32  2
       a =-12.200      CL = -1.0949
      Cm = -0.0521     CD =  0.02048   =>   CDf =  0.00483    CDp =  0.01565

 Side 1 forced transition at x/c =  1.0000   66
 Side 2  free  transition at x/c =  0.0170   30

   3   rms: 0.1712E-03   max: -.6352E-03   D at   31  2
       a =-12.200      CL = -1.0948
      Cm = -0.0521     CD =  0.02048   =>   CDf =  0.00482    CDp =  0.01566

 Side 1 forced transition at x/c =  1.0000   66
 Side 2  free  transition at x/c =  0.0170   30

   4   rms: 0.1775E-05   max: -.6979E-05   C at   66  1
       a =-12.200      CL = -1.0948
      Cm = -0.0521     CD =  0.02048   =>   CDf =  0.00482    CDp =  0.01566
 plradd ia,ip,cpol           25           0  2.16370123E-03

 Point added to stored polar  1
 Point written to save file  polar_1.txt                                     
 Point written to dump file dump_1                                          
 Calculating wake trajectory ...
 Calculating source influence matrix ...

 Solving BL system ...

 Side 1 forced transition at x/c =  1.0000   66
 Side 2  free  transition at x/c =  0.0170   30

   1   rms: 0.3042E-01   max: 0.1284E+00   C at   66  1
       a =-12.000      CL = -1.0850
      Cm = -0.0503     CD =  0.01977   =>   CDf =  0.00482    CDp =  0.01495

 Side 1 forced transition at x/c =  1.0000   66
 Side 2  free  transition at x/c =  0.0173   30

   2   rms: 0.2684E-02   max: 0.2139E-01   D at   30  2
       a =-12.000      CL = -1.0839
      Cm = -0.0504     CD =  0.01991   =>   CDf =  0.00486    CDp =  0.01505

 Side 1 forced transition at x/c =  1.0000   66
 Side 2  free  transition at x/c =  0.0173   30

   3   rms: 0.1193E-04   max: 0.4557E-04   D at  105  2
       a =-12.000      CL = -1.0840
      Cm = -0.0504     CD =  0.01990   =>   CDf =  0.00485    CDp =  0.01505
 plradd ia,ip,cpol           26           0  2.16370123E-03

 Point added to stored polar  1
 Point written to save file  polar_1.txt                                     
 Point written to dump file dump_1                                          
 Calculating wake trajectory ...
 Calculating source influence matrix ...

 Solving BL system ...

 Side 1 forced transition at x/c =  1.0000   66
 Side 2  free  transition at x/c =  0.0173   30

   1   rms: 0.2917E-01   max: -.8185E-01   T at   30  2
       a =-11.800      CL = -1.0719
      Cm = -0.0489     CD =  0.01938   =>   CDf =  0.00513    CDp =  0.01424

 Side 1 forced transition at x/c =  1.0000   67
 Side 2  free  transition at x/c =  0.0176   29

   2   rms: 0.2548E-02   max: 0.3209E-01   D at    3  1
       a =-11.800      CL = -1.0716
      Cm = -0.0489     CD =  0.01946   =>   CDf =  0.00488    CDp =  0.01457

 Side 1 forced transition at x/c =  1.0000   67
 Side 2  free  transition at x/c =  0.0176   29

   3   rms: 0.2395E-03   max: 0.2483E-02   D at    4  1
       a =-11.800      CL = -1.0716
      Cm = -0.0489     CD =  0.01946   =>   CDf =  0.00489    CDp =  0.01457

 Side 1 forced transition at x/c =  1.0000   67
 Side 2  free  transition at x/c =  0.0176   29

   4   rms: 0.5094E-06   max: -.2270E-05   D at   93  2
       a =-11.800      CL = -1.0716
      Cm = -0.0489     CD =  0.01946   =>   CDf =  0.00489    CDp =  0.01457
 plradd ia,ip,cpol           27           0  2.16370123E-03

 Point added to stored polar  1
 Point written to save file  polar_1.txt                                     
 Point written to dump file dump_1                                          
 Calculating wake trajectory ...
 Calculating source influence matrix ...

 Solving BL system ...

 Side 1 forced transition at x/c =  1.0000   67
 Side 2  free  transition at x/c =  0.0176   29

   1   rms: 0.2840E-01   max: -.8052E-01   T at   29  2
       a =-11.600      CL = -1.0589
      Cm = -0.0474     CD =  0.01902   =>   CDf =  0.00488    CDp =  0.01413

 Side 1 forced transition at x/c =  1.0000   67
 Side 2  free  transition at x/c =  0.0179   29

   2   rms: 0.2499E-02   max: -.1781E-01   D at   29  2
       a =-11.600      CL = -1.0590
      Cm = -0.0474     CD =  0.01904   =>   CDf =  0.00491    CDp =  0.01413

 Side 1 forced transition at x/c =  1.0000   67
 Side 2  free  transition at x/c =  0.0179   29

   3   rms: 0.4151E-04   max: 0.3181E-03   D at   64  1
       a =-11.600      CL = -1.0590
      Cm = -0.0474     CD =  0.01904   =>   CDf =  0.00492    CDp =  0.01413
 plradd ia,ip,cpol           28           0  2.16370123E-03

 Point added to stored polar  1
 Point written to save file  polar_1.txt                                     
 Point written to dump file dump_1                                          
 Calculating wake trajectory ...
 Calculating source influence matrix ...

 Solving BL system ...

 Side 1 forced transition at x/c =  1.0000   67
 Side 2  free  transition at x/c =  0.0179   29

   1   rms: 0.2837E-01   max: -.7475E-01   T at   29  2
       a =-11.400      CL = -1.0461
      Cm = -0.0459     CD =  0.01862   =>   CDf =  0.00492    CDp =  0.01370

 Side 1 forced transition at x/c =  1.0000   67
 Side 2  free  transition at x/c =  0.0182   29

   2   rms: 0.2454E-02   max: -.1772E-01   D at   29  2
       a =-11.400      CL = -1.0464
      Cm = -0.0459     CD =  0.01863   =>   CDf =  0.00495    CDp =  0.01368

 Side 1 forced transition at x/c =  1.0000   67
 Side 2  free  transition at x/c =  0.0182   29

   3   rms: 0.4623E-04   max: 0.3414E-03   D at   63  1
       a =-11.400      CL = -1.0464
      Cm = -0.0458     CD =  0.01863   =>   CDf =  0.00496    CDp =  0.01368
 plradd ia,ip,cpol           29           0  2.16370123E-03

 Point added to stored polar  1
 Point written to save file  polar_1.txt                                     
 Point written to dump file dump_1                                          
 Calculating wake trajectory ...
 Calculating source influence matrix ...

 Solving BL system ...

 Side 1 forced transition at x/c =  1.0000   67
 Side 2  free  transition at x/c =  0.0182   29

   1   rms: 0.2854E-01   max: -.7082E-01   T at   29  2
       a =-11.200      CL = -1.0335
      Cm = -0.0443     CD =  0.01820   =>   CDf =  0.00495    CDp =  0.01324

 Side 1 forced transition at x/c =  1.0000   67
 Side 2  free  transition at x/c =  0.0185   29

   2   rms: 0.1408E-02   max: 0.9205E-02   D at   61  1
       a =-11.200      CL = -1.0336
      Cm = -0.0443     CD =  0.01822   =>   CDf =  0.00500    CDp =  0.01323

 Side 1 forced transition at x/c =  1.0000   67
 Side 2  free  transition at x/c =  0.0185   29

   3   rms: 0.3495E-04   max: 0.2533E-03   D at   62  1
       a =-11.200      CL = -1.0336
      Cm = -0.0443     CD =  0.01822   =>   CDf =  0.00500    CDp =  0.01322
 plradd ia,ip,cpol           30           0  2.16370123E-03

 Point added to stored polar  1
 Point written to save file  polar_1.txt                                     
 Point written to dump file dump_1                                          
 Calculating wake trajectory ...
 Calculating source influence matrix ...

 Solving BL system ...

 Side 1 forced transition at x/c =  1.0000   67
 Side 2  free  transition at x/c =  0.0185   29

   1   rms: 0.2870E-01   max: -.7031E-01   T at   29  2
       a =-11.000      CL = -1.0206
      Cm = -0.0428     CD =  0.01780   =>   CDf =  0.00500    CDp =  0.01280

 Side 1 forced transition at x/c =  1.0000   67
 Side 2  free  transition at x/c =  0.0189   29

   2   rms: 0.1178E-02   max: 0.9053E-02   D at   60  1
       a =-11.000      CL = -1.0207
      Cm = -0.0428     CD =  0.01783   =>   CDf =  0.00505    CDp =  0.01278

 Side 1 forced transition at x/c =  1.0000   67
 Side 2  free  transition at x/c =  0.0189   29

   3   rms: 0.3034E-04   max: 0.2161E-03   D at   60  1
       a =-11.000      CL = -1.0207
      Cm = -0.0428     CD =  0.01783   =>   CDf =  0.00505    CDp =  0.01278
 plradd ia,ip,cpol           31           0  2.16370123E-03

 Point added to stored polar  1
 Point written to save file  polar_1.txt                                     
 Point written to dump file dump_1                                          
 Calculating wake trajectory ...
 Calculating source influence matrix ...

 Solving BL system ...

 Side 1 forced transition at x/c =  1.0000   67
 Side 2  free  transition at x/c =  0.0189   29

   1   rms: 0.2882E-01   max: -.7438E-01   T at   29  2
       a =-10.800      CL = -1.0072
      Cm = -0.0413     CD =  0.01742   =>   CDf =  0.00504    CDp =  0.01237

 Side 1 forced transition at x/c =  1.0000   67
 Side 2  free  transition at x/c =  0.0192   29

   2   rms: 0.1025E-02   max: 0.8711E-02   D at   60  1
       a =-10.800      CL = -1.0073
      Cm = -0.0413     CD =  0.01745   =>   CDf =  0.00510    CDp =  0.01236

 Side 1 forced transition at x/c =  1.0000   67
 Side 2  free  transition at x/c =  0.0192   29

   3   rms: 0.2735E-04   max: 0.1893E-03   D at   60  1
       a =-10.800      CL = -1.0073
      Cm = -0.0413     CD =  0.01745   =>   CDf =  0.00510    CDp =  0.01236
 plradd ia,ip,cpol           32           0  2.16370123E-03

 Point added to stored polar  1
 Point written to save file  polar_1.txt                                     
 Point written to dump file dump_1                                          
 Calculating wake trajectory ...
 Calculating source influence matrix ...

 Solving BL system ...

 Side 1 forced transition at x/c =  1.0000   67
 Side 2  free  transition at x/c =  0.0192   29

   1   rms: 0.2899E-01   max: -.7808E-01   T at   29  2
       a =-10.600      CL = -0.9935
      Cm = -0.0399     CD =  0.01707   =>   CDf =  0.00535    CDp =  0.01172

 Side 1  free  transition at x/c =  0.9978   68
 Side 2  free  transition at x/c =  0.0195   28

   2   rms: 0.1007E-01   max: -.1584E+00   D at   68  1
       a =-10.600      CL = -0.9895
      Cm = -0.0407     CD =  0.01707   =>   CDf =  0.00515    CDp =  0.01192

 Side 1  free  transition at x/c =  0.9998   68
 Side 2  free  transition at x/c =  0.0195   28

   3   rms: 0.4694E-03   max: 0.6324E-02   T at   68  1
       a =-10.600      CL = -0.9896
      Cm = -0.0407     CD =  0.01709   =>   CDf =  0.00515    CDp =  0.01194

 Side 1  free  transition at x/c =  0.9997   68
 Side 2  free  transition at x/c =  0.0195   28

   4   rms: 0.3187E-05   max: 0.4037E-04   T at   68  1
       a =-10.600      CL = -0.9896
      Cm = -0.0407     CD =  0.01709   =>   CDf =  0.00515    CDp =  0.01194
 plradd ia,ip,cpol           33           0  2.16370123E-03

 Point added to stored polar  1
 Point written to save file  polar_1.txt                                     
 Point written to dump file dump_1                                          
 Calculating wake trajectory ...
 Calculating source influence matrix ...

 Solving BL system ...

 MRCHDU: Convergence failed at  68  side 1    Res =  0.5700E-05
 Side 1  free  transition at x/c =  0.9997   68
 Side 2  free  transition at x/c =  0.0195   28

   1   rms: 0.3416E-01   max: -.1112E+00   T at   28  2
       a =-10.400      CL = -0.9642
      Cm = -0.0416     CD =  0.01671   =>   CDf =  0.00515    CDp =  0.01156

 Side 1  free  transition at x/c =  0.9988   68
 Side 2  free  transition at x/c =  0.0198   29

   2   rms: 0.6295E-02   max: 0.4226E-01   D at   28  2
       a =-10.400      CL = -0.9649
      Cm = -0.0416     CD =  0.01659   =>   CDf =  0.00523    CDp =  0.01136

 Side 1  free  transition at x/c =  0.9988   68
 Side 2  free  transition at x/c =  0.0198   29

   3   rms: 0.5251E-04   max: 0.1932E-03   T at   29  2
       a =-10.400      CL = -0.9649
      Cm = -0.0416     CD =  0.01658   =>   CDf =  0.00522    CDp =  0.01137
 plradd ia,ip,cpol           34           0  2.16370123E-03

 Point added to stored polar  1
 Point written to save file  polar_1.txt                                     
 Point written to dump file dump_1                                          
 Calculating wake trajectory ...
 Calculating source influence matrix ...

 Solving BL system ...

 Side 1  free  transition at x/c =  0.9988   68
 Side 2  free  transition at x/c =  0.0198   29

   1   rms: 0.5627E-01   max: -.1661E+00   T at   29  2
       a =-10.200      CL = -0.9443
      Cm = -0.0422     CD =  0.01522   =>   CDf =  0.00522    CDp =  0.01001

 Side 1  free  transition at x/c =  0.9973   68
 Side 2  free  transition at x/c =  0.0211   29

   2   rms: 0.1911E-01   max: 0.5712E-01   T at   31  2
       a =-10.200      CL = -0.9418
      Cm = -0.0424     CD =  0.01575   =>   CDf =  0.00528    CDp =  0.01047

 Side 1  free  transition at x/c =  0.9976   68
 Side 2  free  transition at x/c =  0.0206   29

   3   rms: 0.6290E-03   max: -.7178E-02   D at   29  2
       a =-10.200      CL = -0.9416
      Cm = -0.0424     CD =  0.01579   =>   CDf =  0.00525    CDp =  0.01053

 Side 1  free  transition at x/c =  0.9976   68
 Side 2  free  transition at x/c =  0.0206   29

   4   rms: 0.1425E-04   max: 0.1159E-03   D at   29  2
       a =-10.200      CL = -0.9416
      Cm = -0.0424     CD =  0.01579   =>   CDf =  0.00526    CDp =  0.01053
 plradd ia,ip,cpol           35           0  2.16370123E-03

 Point added to stored polar  1
 Point written to save file  polar_1.txt                                     
 Point written to dump file dump_1                                          
 Calculating wake trajectory ...
 Calculating source influence matrix ...

 Solving BL system ...

 Side 1  free  transition at x/c =  0.9976   68
 Side 2  free  transition at x/c =  0.0206   29

   1   rms: 0.3665E-01   max: -.1184E+00   T at   29  2
       a =-10.000      CL = -0.9168
      Cm = -0.0434     CD =  0.01527   =>   CDf =  0.00526    CDp =  0.01001

 Side 1  free  transition at x/c =  0.9963   68
 Side 2  free  transition at x/c =  0.0212   29

   2   rms: 0.1720E-02   max: 0.4596E-02   T at   31  2
       a =-10.000      CL = -0.9162
      Cm = -0.0434     CD =  0.01536   =>   CDf =  0.00528    CDp =  0.01008

 Side 1  free  transition at x/c =  0.9965   68
 Side 2  free  transition at x/c =  0.0212   29

   3   rms: 0.1394E-04   max: -.1275E-03   D at   29  2
       a =-10.000      CL = -0.9162
      Cm = -0.0434     CD =  0.01536   =>   CDf =  0.00528    CDp =  0.01008
 plradd ia,ip,cpol           36           0  2.16370123E-03

 Point added to stored polar  1
 Point written to save file  polar_1.txt                                     
 Point written to dump file dump_1                                          
 Calculating wake trajectory ...
 Calculating source influence matrix ...

 Solving BL system ...

 Side 1  free  transition at x/c =  0.9965   68
 Side 2  free  transition at x/c =  0.0212   29

   1   rms: 0.3545E-01   max: -.1220E+00   T at   29  2
       a = -9.800      CL = -0.8903
      Cm = -0.0444     CD =  0.01499   =>   CDf =  0.00551    CDp =  0.00948

 Side 1  free  transition at x/c =  0.9954   69
 Side 2  free  transition at x/c =  0.0218   28

   2   rms: 0.3927E-02   max: -.3022E-01   D at   28  2
       a = -9.800      CL = -0.8902
      Cm = -0.0445     CD =  0.01500   =>   CDf =  0.00530    CDp =  0.00970

 Side 1  free  transition at x/c =  0.9955   69
 Side 2  free  transition at x/c =  0.0218   28

   3   rms: 0.2590E-03   max: 0.2783E-02   D at    4  1
       a = -9.800      CL = -0.8902
      Cm = -0.0445     CD =  0.01500   =>   CDf =  0.00531    CDp =  0.00969

 Side 1  free  transition at x/c =  0.9955   69
 Side 2  free  transition at x/c =  0.0218   28

   4   rms: 0.5001E-06   max: -.4082E-05   D at   69  1
       a = -9.800      CL = -0.8902
      Cm = -0.0445     CD =  0.01500   =>   CDf =  0.00531    CDp =  0.00969
 plradd ia,ip,cpol           37           0  2.16370123E-03

 Point added to stored polar  1
 Point written to save file  polar_1.txt                                     
 Point written to dump file dump_1                                          
 Calculating wake trajectory ...
 Calculating source influence matrix ...

 Solving BL system ...

 Side 1  free  transition at x/c =  0.9955   69
 Side 2  free  transition at x/c =  0.0218   28

   1   rms: 0.3535E-01   max: -.1179E+00   T at   28  2
       a = -9.600      CL = -0.8638
      Cm = -0.0456     CD =  0.01466   =>   CDf =  0.00530    CDp =  0.00935

 Side 1  free  transition at x/c =  0.9945   69
 Side 2  free  transition at x/c =  0.0225   28

   2   rms: 0.1372E-02   max: -.9271E-02   D at   28  2
       a = -9.600      CL = -0.8636
      Cm = -0.0456     CD =  0.01467   =>   CDf =  0.00533    CDp =  0.00934

 Side 1  free  transition at x/c =  0.9946   69
 Side 2  free  transition at x/c =  0.0225   28

   3   rms: 0.6142E-05   max: -.6295E-04   T at   69  1
       a = -9.600      CL = -0.8636
      Cm = -0.0456     CD =  0.01467   =>   CDf =  0.00534    CDp =  0.00934
 plradd ia,ip,cpol           38           0  3.36596044E-03

 Point added to stored polar  1
 Point written to save file  polar_1.txt                                     
 Point written to dump file dump_1                                          
 Calculating wake trajectory ...
 Calculating source influence matrix ...

 Solving BL system ...

 Side 1  free  transition at x/c =  0.9946   69
 Side 2  free  transition at x/c =  0.0225   28

   1   rms: 0.3540E-01   max: -.1250E+00   T at   28  2
       a = -9.400      CL = -0.8368
      Cm = -0.0467     CD =  0.01436   =>   CDf =  0.00533    CDp =  0.00903

 Side 1  free  transition at x/c =  0.9938   68
 Side 2  free  transition at x/c =  0.0231   28

   2   rms: 0.1344E-02   max: -.1526E-01   T at   68  1
       a = -9.400      CL = -0.8361
      Cm = -0.0469     CD =  0.01439   =>   CDf =  0.00537    CDp =  0.00901

 Side 1  free  transition at x/c =  0.9942   69
 Side 2  free  transition at x/c =  0.0231   28

   3   rms: 0.4188E-02   max: 0.6078E-01   D at   68  1
       a = -9.400      CL = -0.8366
      Cm = -0.0468     CD =  0.01438   =>   CDf =  0.00538    CDp =  0.00901

 Side 1  free  transition at x/c =  0.9939   69
 Side 2  free  transition at x/c =  0.0231   28

   4   rms: 0.5889E-04   max: -.1345E-02   D at   69  1
       a = -9.400      CL = -0.8366
      Cm = -0.0468     CD =  0.01438   =>   CDf =  0.00538    CDp =  0.00901
 plradd ia,ip,cpol           39           0  3.36596044E-03

 Point added to stored polar  1
 Point written to save file  polar_1.txt                                     
 Point written to dump file dump_1                                          
 Calculating wake trajectory ...
 Calculating source influence matrix ...

 Solving BL system ...

 Side 1  free  transition at x/c =  0.9939   69
 Side 2  free  transition at x/c =  0.0231   28

   1   rms: 0.3568E-01   max: -.1424E+00   T at   28  2
       a = -9.200      CL = -0.8092
      Cm = -0.0480     CD =  0.01413   =>   CDf =  0.00537    CDp =  0.00875

 Side 1  free  transition at x/c =  0.9933   68
 Side 2  free  transition at x/c =  0.0237   29

   2   rms: 0.6432E-02   max: -.6822E-01   C at   68  1
       a = -9.200      CL = -0.8126
      Cm = -0.0473     CD =  0.01399   =>   CDf =  0.00543    CDp =  0.00856

 Side 1  free  transition at x/c =  0.9921   68
 Side 2  free  transition at x/c =  0.0237   29

   3   rms: 0.4416E-03   max: -.4705E-02   T at   68  1
       a = -9.200      CL = -0.8123
      Cm = -0.0474     CD =  0.01399   =>   CDf =  0.00542    CDp =  0.00857

 Side 1  free  transition at x/c =  0.9922   68
 Side 2  free  transition at x/c =  0.0237   29

   4   rms: 0.4724E-05   max: -.4671E-04   T at   68  1
       a = -9.200      CL = -0.8123
      Cm = -0.0474     CD =  0.01399   =>   CDf =  0.00542    CDp =  0.00857
 plradd ia,ip,cpol           40           0  3.36596044E-03

 Point added to stored polar  1
 Point written to save file  polar_1.txt                                     
 Point written to dump file dump_1                                          
 Calculating wake trajectory ...
 Calculating source influence matrix ...

 Solving BL system ...

 Side 1  free  transition at x/c =  0.9922   68
 Side 2  free  transition at x/c =  0.0237   29

   1   rms: 0.4925E-01   max: -.1644E+00   T at   29  2
       a = -9.000      CL = -0.7905
      Cm = -0.0478     CD =  0.01310   =>   CDf =  0.00563    CDp =  0.00747

 Side 1  free  transition at x/c =  0.9898   69
 Side 2  free  transition at x/c =  0.0253   28

   2   rms: 0.1553E-01   max: 0.4810E-01   T at   29  2
       a = -9.000      CL = -0.7883
      Cm = -0.0481     CD =  0.01343   =>   CDf =  0.00545    CDp =  0.00797

 Side 1  free  transition at x/c =  0.9904   69
 Side 2  free  transition at x/c =  0.0248   28

   3   rms: 0.4823E-03   max: -.5477E-02   D at   28  2
       a = -9.000      CL = -0.7882
      Cm = -0.0481     CD =  0.01344   =>   CDf =  0.00544    CDp =  0.00801

 Side 1  free  transition at x/c =  0.9904   69
 Side 2  free  transition at x/c =  0.0247   28

   4   rms: 0.3508E-05   max: 0.1179E-04   T at   30  2
       a = -9.000      CL = -0.7882
      Cm = -0.0481     CD =  0.01344   =>   CDf =  0.00544    CDp =  0.00800
 plradd ia,ip,cpol           41           0  3.36596044E-03

 Point added to stored polar  1
 Point written to save file  polar_1.txt                                     
 Point written to dump file dump_1                                          
 Calculating wake trajectory ...
 Calculating source influence matrix ...

 Solving BL system ...

 Side 1  free  transition at x/c =  0.9904   69
 Side 2  free  transition at x/c =  0.0247   28

   1   rms: 0.3680E-01   max: -.1356E+00   T at   28  2
       a = -8.800      CL = -0.7628
      Cm = -0.0490     CD =  0.01307   =>   CDf =  0.00544    CDp =  0.00763

 Side 1  free  transition at x/c =  0.9886   69
 Side 2  free  transition at x/c =  0.0256   28

   2   rms: 0.1277E-02   max: -.9206E-02   D at   70  1
       a = -8.800      CL = -0.7623
      Cm = -0.0491     CD =  0.01312   =>   CDf =  0.00545    CDp =  0.00767

 Side 1  free  transition at x/c =  0.9888   69
 Side 2  free  transition at x/c =  0.0256   28

   3   rms: 0.1235E-04   max: -.1312E-03   T at   69  1
       a = -8.800      CL = -0.7623
      Cm = -0.0491     CD =  0.01312   =>   CDf =  0.00545    CDp =  0.00767
 plradd ia,ip,cpol           42           0  3.36596044E-03

 Point added to stored polar  1
 Point written to save file  polar_1.txt                                     
 Point written to dump file dump_1                                          
 Calculating wake trajectory ...
 Calculating source influence matrix ...

 Solving BL system ...

 Side 1  free  transition at x/c =  0.9888   69
 Side 2  free  transition at x/c =  0.0256   28

   1   rms: 0.3598E-01   max: -.1370E+00   T at   28  2
       a = -8.600      CL = -0.7359
      Cm = -0.0501     CD =  0.01283   =>   CDf =  0.00545    CDp =  0.00738

 Side 1  free  transition at x/c =  0.9873   69
 Side 2  free  transition at x/c =  0.0265   28

   2   rms: 0.3992E-02   max: -.3998E-01   D at   28  2
       a = -8.600      CL = -0.7357
      Cm = -0.0501     CD =  0.01283   =>   CDf =  0.00546    CDp =  0.00737

 Side 1  free  transition at x/c =  0.9875   69
 Side 2  free  transition at x/c =  0.0265   28

   3   rms: 0.3053E-04   max: 0.3309E-03   D at   28  2
       a = -8.600      CL = -0.7357
      Cm = -0.0501     CD =  0.01283   =>   CDf =  0.00547    CDp =  0.00736
 plradd ia,ip,cpol           43           0  3.36596044E-03

 Point added to stored polar  1
 Point written to save file  polar_1.txt                                     
 Point written to dump file dump_1                                          
 Calculating wake trajectory ...
 Calculating source influence matrix ...

 Solving BL system ...

 Side 1  free  transition at x/c =  0.9875   69
 Side 2  free  transition at x/c =  0.0265   28

   1   rms: 0.3599E-01   max: -.1308E+00   T at   28  2
       a = -8.400      CL = -0.7088
      Cm = -0.0512     CD =  0.01255   =>   CDf =  0.00547    CDp =  0.00708

 Side 1  free  transition at x/c =  0.9861   69
 Side 2  free  transition at x/c =  0.0273   28

   2   rms: 0.1593E-02   max: -.1147E-01   D at   70  1
       a = -8.400      CL = -0.7084
      Cm = -0.0513     CD =  0.01256   =>   CDf =  0.00550    CDp =  0.00706

 Side 1  free  transition at x/c =  0.9863   69
 Side 2  free  transition at x/c =  0.0273   28

   3   rms: 0.8995E-05   max: -.9813E-04   D at   69  1
       a = -8.400      CL = -0.7084
      Cm = -0.0513     CD =  0.01256   =>   CDf =  0.00550    CDp =  0.00706
 plradd ia,ip,cpol           44           0  3.36596044E-03

 Point added to stored polar  1
 Point written to save file  polar_1.txt                                     
 Point written to dump file dump_1                                          
 Calculating wake trajectory ...
 Calculating source influence matrix ...

 Solving BL system ...

 Side 1  free  transition at x/c =  0.9863   69
 Side 2  free  transition at x/c =  0.0273   28

   1   rms: 0.3632E-01   max: -.1462E+00   T at   28  2
       a = -8.200      CL = -0.6808
      Cm = -0.0525     CD =  0.01233   =>   CDf =  0.00568    CDp =  0.00665

 Side 1  free  transition at x/c =  0.9852   70
 Side 2  free  transition at x/c =  0.0282   28

   2   rms: 0.3872E-02   max: 0.3119E-01   D at    3  1
       a = -8.200      CL = -0.6814
      Cm = -0.0525     CD =  0.01216   =>   CDf =  0.00554    CDp =  0.00662

 Side 1  free  transition at x/c =  0.9853   70
 Side 2  free  transition at x/c =  0.0284   28

   3   rms: 0.4105E-03   max: 0.3229E-02   D at    4  1
       a = -8.200      CL = -0.6814
      Cm = -0.0525     CD =  0.01216   =>   CDf =  0.00553    CDp =  0.00663

 Side 1  free  transition at x/c =  0.9853   70
 Side 2  free  transition at x/c =  0.0284   28

   4   rms: 0.2818E-05   max: 0.1416E-04   T at   28  2
       a = -8.200      CL = -0.6814
      Cm = -0.0525     CD =  0.01216   =>   CDf =  0.00553    CDp =  0.00663
 plradd ia,ip,cpol           45           0  3.36596044E-03

 Point added to stored polar  1
 Point written to save file  polar_1.txt                                     
 Point written to dump file dump_1                                          
 Calculating wake trajectory ...
 Calculating source influence matrix ...

 Solving BL system ...

 Side 1  free  transition at x/c =  0.9853   70
 Side 2  free  transition at x/c =  0.0284   28

   1   rms: 0.4391E-01   max: -.1623E+00   T at   28  2
       a = -8.000      CL = -0.6547
      Cm = -0.0537     CD =  0.01162   =>   CDf =  0.00553    CDp =  0.00609

 Side 1  free  transition at x/c =  0.9842   70
 Side 2  free  transition at x/c =  0.0305   28

   2   rms: 0.1240E-01   max: 0.1331E+00   D at   28  2
       a = -8.000      CL = -0.6538
      Cm = -0.0538     CD =  0.01179   =>   CDf =  0.00553    CDp =  0.00626

 Side 1  free  transition at x/c =  0.9844   70
 Side 2  free  transition at x/c =  0.0299   28

   3   rms: 0.3771E-03   max: -.4897E-02   D at   29  2
       a = -8.000      CL = -0.6538
      Cm = -0.0538     CD =  0.01180   =>   CDf =  0.00552    CDp =  0.00627

 Side 1  free  transition at x/c =  0.9844   70
 Side 2  free  transition at x/c =  0.0299   28

   4   rms: 0.1171E-05   max: -.1450E-04   D at   29  2
       a = -8.000      CL = -0.6538
      Cm = -0.0538     CD =  0.01180   =>   CDf =  0.00553    CDp =  0.00627
 plradd ia,ip,cpol           46           0  3.36596044E-03

 Point added to stored polar  1
 Point written to save file  polar_1.txt                                     
 Point written to dump file dump_1                                          
 Calculating wake trajectory ...
 Calculating source influence matrix ...

 Solving BL system ...

 Side 1  free  transition at x/c =  0.9844   70
 Side 2  free  transition at x/c =  0.0299   28

   1   rms: 0.3858E-01   max: -.1604E+00   T at   28  2
       a = -7.800      CL = -0.6256
      Cm = -0.0552     CD =  0.01152   =>   CDf =  0.00553    CDp =  0.00600

 Side 1  free  transition at x/c =  0.9835   70
 Side 2  free  transition at x/c =  0.0312   28

   2   rms: 0.3725E-02   max: -.4134E-01   D at   28  2
       a = -7.800      CL = -0.6252
      Cm = -0.0552     CD =  0.01155   =>   CDf =  0.00553    CDp =  0.00602

 Side 1  free  transition at x/c =  0.9836   70
 Side 2  free  transition at x/c =  0.0313   28

   3   rms: 0.3199E-04   max: 0.3673E-03   D at   28  2
       a = -7.800      CL = -0.6253
      Cm = -0.0552     CD =  0.01155   =>   CDf =  0.00553    CDp =  0.00602
 plradd ia,ip,cpol           47           0  3.36596044E-03

 Point added to stored polar  1
 Point written to save file  polar_1.txt                                     
 Point written to dump file dump_1                                          
 Calculating wake trajectory ...
 Calculating source influence matrix ...

 Solving BL system ...

 Side 1  free  transition at x/c =  0.9836   70
 Side 2  free  transition at x/c =  0.0313   28

   1   rms: 0.3777E-01   max: -.1588E+00   T at   28  2
       a = -7.600      CL = -0.5966
      Cm = -0.0567     CD =  0.01131   =>   CDf =  0.00568    CDp =  0.00563

 Side 1  free  transition at x/c =  0.9828   70
 Side 2  free  transition at x/c =  0.0324   27
 idif Ue xi dudx           1  0.10714002      3.45492363E-03   31.010822    
 Uenew xinew           2  9.24194523E-04  2.98023224E-05

   2   rms: 0.1081E-01   max: 0.1659E+00   D at    2  1
       a = -7.600      CL = -0.5998
      Cm = -0.0559     CD =  0.01134   =>   CDf =  0.00540    CDp =  0.00594

 Side 1  free  transition at x/c =  0.9813   69
 Side 2  free  transition at x/c =  0.0324   28

   3   rms: 0.3198E-02   max: -.5288E-01   T at    2  2
       a = -7.600      CL = -0.5992
      Cm = -0.0561     CD =  0.01134   =>   CDf =  0.00556    CDp =  0.00579

 Side 1  free  transition at x/c =  0.9816   69
 Side 2  free  transition at x/c =  0.0324   28

   4   rms: 0.4018E-03   max: -.5040E-02   D at    4  2
       a = -7.600      CL = -0.5992
      Cm = -0.0561     CD =  0.01134   =>   CDf =  0.00556    CDp =  0.00579

 Side 1  free  transition at x/c =  0.9816   69
 Side 2  free  transition at x/c =  0.0324   28

   5   rms: 0.3698E-05   max: -.4675E-04   D at    4  2
       a = -7.600      CL = -0.5992
      Cm = -0.0561     CD =  0.01134   =>   CDf =  0.00556    CDp =  0.00579
 plradd ia,ip,cpol           48           0  4.83606383E-03

 Point added to stored polar  1
 Point written to save file  polar_1.txt                                     
 Point written to dump file dump_1                                          
 Calculating wake trajectory ...
 Calculating source influence matrix ...

 Solving BL system ...

 Side 1  free  transition at x/c =  0.9816   69
 Side 2  free  transition at x/c =  0.0324   28

   1   rms: 0.3531E-01   max: 0.1854E+00   C at   28  2
       a = -7.400      CL = -0.5768
      Cm = -0.0560     CD =  0.01117   =>   CDf =  0.00570    CDp =  0.00547

 Side 1  free  transition at x/c =  0.9769   70
 Side 2  free  transition at x/c =  0.0336   28

   2   rms: 0.8893E-02   max: -.6193E-01   D at   71  1
       a = -7.400      CL = -0.5759
      Cm = -0.0564     CD =  0.01094   =>   CDf =  0.00558    CDp =  0.00537

 Side 1  free  transition at x/c =  0.9782   70
 Side 2  free  transition at x/c =  0.0343   28

   3   rms: 0.1635E-02   max: 0.5587E-02   T at   30  2
       a = -7.400      CL = -0.5758
      Cm = -0.0564     CD =  0.01096   =>   CDf =  0.00557    CDp =  0.00539

 Side 1  free  transition at x/c =  0.9782   70
 Side 2  free  transition at x/c =  0.0342   28

   4   rms: 0.1061E-04   max: -.1081E-03   D at   29  2
       a = -7.400      CL = -0.5758
      Cm = -0.0564     CD =  0.01096   =>   CDf =  0.00557    CDp =  0.00540
 plradd ia,ip,cpol           49           0  4.83606383E-03

 Point added to stored polar  1
 Point written to save file  polar_1.txt                                     
 Point written to dump file dump_1                                          
 Calculating wake trajectory ...
 Calculating source influence matrix ...

 Solving BL system ...

 Side 1  free  transition at x/c =  0.9782   70
 Side 2  free  transition at x/c =  0.0342   28

   1   rms: 0.3890E-01   max: 0.1753E+00   D at   28  2
       a = -7.200      CL = -0.5510
      Cm = -0.0570     CD =  0.01064   =>   CDf =  0.00557    CDp =  0.00507

 Side 1  free  transition at x/c =  0.9749   70
 Side 2  free  transition at x/c =  0.0360   28

   2   rms: 0.2568E-02   max: -.1976E-01   T at   71  1
       a = -7.200      CL = -0.5502
      Cm = -0.0571     CD =  0.01069   =>   CDf =  0.00556    CDp =  0.00513

 Side 1  free  transition at x/c =  0.9755   70
 Side 2  free  transition at x/c =  0.0359   28

   3   rms: 0.3541E-04   max: -.3913E-03   D at   70  1
       a = -7.200      CL = -0.5502
      Cm = -0.0571     CD =  0.01069   =>   CDf =  0.00556    CDp =  0.00513
 plradd ia,ip,cpol           50           0  4.83606383E-03

 Point added to stored polar  1
 Point written to save file  polar_1.txt                                     
 Point written to dump file dump_1                                          
 Calculating wake trajectory ...
 Calculating source influence matrix ...

 Solving BL system ...

 Side 1  free  transition at x/c =  0.9755   70
 Side 2  free  transition at x/c =  0.0359   28

   1   rms: 0.3711E-01   max: -.1585E+00   T at   28  2
       a = -7.000      CL = -0.5241
      Cm = -0.0580     CD =  0.01046   =>   CDf =  0.00556    CDp =  0.00491

 Side 1  free  transition at x/c =  0.9727   70
 Side 2  free  transition at x/c =  0.0375   28

   2   rms: 0.4144E-02   max: -.4958E-01   D at   28  2
       a = -7.000      CL = -0.5242
      Cm = -0.0579     CD =  0.01048   =>   CDf =  0.00557    CDp =  0.00491

 Side 1  free  transition at x/c =  0.9729   70
 Side 2  free  transition at x/c =  0.0375   28

   3   rms: 0.5186E-04   max: 0.5937E-03   D at   28  2
       a = -7.000      CL = -0.5242
      Cm = -0.0579     CD =  0.01048   =>   CDf =  0.00557    CDp =  0.00490
 plradd ia,ip,cpol           51           0  4.83606383E-03

 Point added to stored polar  1
 Point written to save file  polar_1.txt                                     
 Point written to dump file dump_1                                          
 Calculating wake trajectory ...
 Calculating source influence matrix ...

 Solving BL system ...

 Side 1  free  transition at x/c =  0.9729   70
 Side 2  free  transition at x/c =  0.0375   28

   1   rms: 0.3670E-01   max: -.1606E+00   T at   28  2
       a = -6.800      CL = -0.4984
      Cm = -0.0586     CD =  0.01029   =>   CDf =  0.00570    CDp =  0.00459

 Side 1  free  transition at x/c =  0.9705   71
 Side 2  free  transition at x/c =  0.0394   28

   2   rms: 0.4520E-02   max: -.3132E-01   T at   28  2
       a = -6.800      CL = -0.4989
      Cm = -0.0586     CD =  0.01018   =>   CDf =  0.00559    CDp =  0.00459

 Side 1  free  transition at x/c =  0.9704   70
 Side 2  free  transition at x/c =  0.0398   28

   3   rms: 0.6140E-03   max: -.2350E-02   D at   29  2
       a = -6.800      CL = -0.4990
      Cm = -0.0585     CD =  0.01019   =>   CDf =  0.00558    CDp =  0.00461

 Side 1  free  transition at x/c =  0.9704   70
 Side 2  free  transition at x/c =  0.0398   28

   4   rms: 0.4001E-05   max: -.3600E-04   D at   71  1
       a = -6.800      CL = -0.4990
      Cm = -0.0585     CD =  0.01019   =>   CDf =  0.00558    CDp =  0.00460
 plradd ia,ip,cpol           52           0  4.83606383E-03

 Point added to stored polar  1
 Point written to save file  polar_1.txt                                     
 Point written to dump file dump_1                                          
 Calculating wake trajectory ...
 Calculating source influence matrix ...

 Solving BL system ...

 Side 1  free  transition at x/c =  0.9704   70
 Side 2  free  transition at x/c =  0.0398   28

   1   rms: 0.3591E-01   max: 0.1888E+00   D at   28  2
       a = -6.600      CL = -0.4828
      Cm = -0.0572     CD =  0.00993   =>   CDf =  0.00558    CDp =  0.00434

 Side 1  free  transition at x/c =  0.9617   70
[...]
   3   rms: 0.1954E-02   max: 0.1816E-01   D at   71  1
       a = 16.800      CL =  1.5014
      Cm = -0.0089     CD =  0.05717   =>   CDf =  0.00467    CDp =  0.05251

 Side 1  free  transition at x/c =  0.0141   31
 Side 2 forced transition at x/c =  1.0000   62

   4   rms: 0.7907E-04   max: 0.6142E-03   D at   76  2
       a = 16.800      CL =  1.5014
      Cm = -0.0089     CD =  0.05715   =>   CDf =  0.00466    CDp =  0.05249
 plradd ia,ip,cpol          165           0  8.48699303E-04

 Point added to stored polar  1
 Point written to save file  polar_1.txt                                     
 Point written to dump file dump_1                                          
 Calculating wake trajectory ...
 Calculating source influence matrix ...

 Solving BL system ...

 Side 1  free  transition at x/c =  0.0141   31
 Side 2 forced transition at x/c =  1.0000   62

   1   rms: 0.4034E-01   max: 0.1729E+00   D at   69  1   RLX: 0.644
       a = 17.000      CL =  1.4950
      Cm = -0.0098     CD =  0.06031   =>   CDf =  0.00467    CDp =  0.05564

 Side 1  free  transition at x/c =  0.0140   30
 Side 2 forced transition at x/c =  1.0000   62

   2   rms: 0.9413E-02   max: -.5098E-01   D at   30  1
       a = 17.000      CL =  1.4974
      Cm = -0.0097     CD =  0.06042   =>   CDf =  0.00459    CDp =  0.05583

 Side 1  free  transition at x/c =  0.0140   30
 Side 2 forced transition at x/c =  1.0000   62

   3   rms: 0.5267E-03   max: 0.4032E-02   D at   76  2
       a = 17.000      CL =  1.4969
      Cm = -0.0096     CD =  0.06033   =>   CDf =  0.00458    CDp =  0.05575

 Side 1  free  transition at x/c =  0.0140   30
 Side 2 forced transition at x/c =  1.0000   62

   4   rms: 0.2792E-04   max: 0.2893E-03   D at   76  2
       a = 17.000      CL =  1.4969
      Cm = -0.0096     CD =  0.06032   =>   CDf =  0.00458    CDp =  0.05575
 plradd ia,ip,cpol          166           0  8.48699303E-04

 Point added to stored polar  1
 Point written to save file  polar_1.txt                                     
 Point written to dump file dump_1                                          
 Calculating wake trajectory ...
 Calculating source influence matrix ...

 Solving BL system ...

 Side 1  free  transition at x/c =  0.0140   30
 Side 2 forced transition at x/c =  1.0000   62

   1   rms: 0.2588E-01   max: 0.9826E-01   D at   68  1   RLX: 0.631
       a = 17.200      CL =  1.4981
      Cm = -0.0101     CD =  0.06222   =>   CDf =  0.00458    CDp =  0.05764

 Side 1  free  transition at x/c =  0.0140   30
 Side 2 forced transition at x/c =  1.0000   62

   2   rms: 0.1201E-01   max: 0.6197E-01   D at   69  1
       a = 17.200      CL =  1.4957
      Cm = -0.0105     CD =  0.06347   =>   CDf =  0.00453    CDp =  0.05895

 Side 1  free  transition at x/c =  0.0140   30
 Side 2 forced transition at x/c =  1.0000   62

   3   rms: 0.2155E-02   max: 0.1047E-01   D at   76  2
       a = 17.200      CL =  1.4940
      Cm = -0.0104     CD =  0.06337   =>   CDf =  0.00449    CDp =  0.05888

 Side 1  free  transition at x/c =  0.0140   30
 Side 2 forced transition at x/c =  1.0000   62

   4   rms: 0.2200E-03   max: 0.1055E-02   D at   76  2
       a = 17.200      CL =  1.4938
      Cm = -0.0104     CD =  0.06336   =>   CDf =  0.00449    CDp =  0.05886

 Side 1  free  transition at x/c =  0.0140   30
 Side 2 forced transition at x/c =  1.0000   62

   5   rms: 0.2354E-04   max: 0.1179E-03   D at   76  2
       a = 17.200      CL =  1.4938
      Cm = -0.0104     CD =  0.06335   =>   CDf =  0.00449    CDp =  0.05886
 plradd ia,ip,cpol          167           0  8.48699303E-04

 Point added to stored polar  1
 Point written to save file  polar_1.txt                                     
 Point written to dump file dump_1                                          
 Calculating wake trajectory ...
 Calculating source influence matrix ...

 Solving BL system ...

 Side 1  free  transition at x/c =  0.0140   30
 Side 2 forced transition at x/c =  1.0000   62

   1   rms: 0.2637E-01   max: 0.1053E+00   D at   67  1   RLX: 0.610
       a = 17.400      CL =  1.4943
      Cm = -0.0110     CD =  0.06537   =>   CDf =  0.00449    CDp =  0.06087

 Side 1  free  transition at x/c =  0.0139   30
 Side 2 forced transition at x/c =  1.0000   62

   2   rms: 0.1211E-01   max: 0.5685E-01   D at   68  1
       a = 17.400      CL =  1.4919
      Cm = -0.0114     CD =  0.06668   =>   CDf =  0.00444    CDp =  0.06223

 Side 1  free  transition at x/c =  0.0139   30
 Side 2 forced transition at x/c =  1.0000   62

   3   rms: 0.2346E-02   max: 0.1022E-01   D at   67  1
       a = 17.400      CL =  1.4901
      Cm = -0.0113     CD =  0.06657   =>   CDf =  0.00441    CDp =  0.06217

 Side 1  free  transition at x/c =  0.0139   30
 Side 2 forced transition at x/c =  1.0000   62

   4   rms: 0.2667E-03   max: 0.1147E-02   D at   76  2
       a = 17.400      CL =  1.4899
      Cm = -0.0112     CD =  0.06656   =>   CDf =  0.00440    CDp =  0.06215

 Side 1  free  transition at x/c =  0.0139   30
 Side 2 forced transition at x/c =  1.0000   62

   5   rms: 0.2875E-04   max: 0.1344E-03   D at   76  2
       a = 17.400      CL =  1.4898
      Cm = -0.0112     CD =  0.06656   =>   CDf =  0.00440    CDp =  0.06215
 plradd ia,ip,cpol          168           0  8.48699303E-04

 Point added to stored polar  1
 Point written to save file  polar_1.txt                                     
 Point written to dump file dump_1                                          
 Calculating wake trajectory ...
 Calculating source influence matrix ...

 Solving BL system ...

 Side 1  free  transition at x/c =  0.0139   30
 Side 2 forced transition at x/c =  1.0000   62

   1   rms: 0.2731E-01   max: 0.1152E+00   D at   66  1   RLX: 0.590
       a = 17.600      CL =  1.4894
      Cm = -0.0120     CD =  0.06874   =>   CDf =  0.00441    CDp =  0.06434

 Side 1  free  transition at x/c =  0.0138   30
 Side 2 forced transition at x/c =  1.0000   62

   2   rms: 0.1252E-01   max: 0.5676E-01   D at   66  1
       a = 17.600      CL =  1.4866
      Cm = -0.0124     CD =  0.07016   =>   CDf =  0.00436    CDp =  0.06580

 Side 1  free  transition at x/c =  0.0138   30
 Side 2 forced transition at x/c =  1.0000   62

   3   rms: 0.2872E-02   max: 0.1560E-01   D at   66  1
       a = 17.600      CL =  1.4845
      Cm = -0.0123     CD =  0.07009   =>   CDf =  0.00432    CDp =  0.06577

 Side 1  free  transition at x/c =  0.0138   30
 Side 2 forced transition at x/c =  1.0000   62

   4   rms: 0.3615E-03   max: 0.1677E-02   D at   77  2
       a = 17.600      CL =  1.4842
      Cm = -0.0123     CD =  0.07006   =>   CDf =  0.00432    CDp =  0.06574

 Side 1  free  transition at x/c =  0.0138   30
 Side 2 forced transition at x/c =  1.0000   62

   5   rms: 0.3679E-04   max: 0.1796E-03   D at   77  2
       a = 17.600      CL =  1.4842
      Cm = -0.0123     CD =  0.07005   =>   CDf =  0.00432    CDp =  0.06574
 plradd ia,ip,cpol          169           0  8.48699303E-04

 Point added to stored polar  1
 Point written to save file  polar_1.txt                                     
 Point written to dump file dump_1                                          
 Calculating wake trajectory ...
 Calculating source influence matrix ...

 Solving BL system ...

 Side 1  free  transition at x/c =  0.0138   30
 Side 2 forced transition at x/c =  1.0000   62

   1   rms: 0.2730E-01   max: 0.1176E+00   D at   65  1   RLX: 0.570
       a = 17.800      CL =  1.4834
      Cm = -0.0131     CD =  0.07228   =>   CDf =  0.00432    CDp =  0.06796

 Side 1  free  transition at x/c =  0.0137   30
 Side 2 forced transition at x/c =  1.0000   62

   2   rms: 0.1241E-01   max: 0.5624E-01   D at   65  1
       a = 17.800      CL =  1.4808
      Cm = -0.0135     CD =  0.07374   =>   CDf =  0.00427    CDp =  0.06947

 Side 1  free  transition at x/c =  0.0137   30
 Side 2 forced transition at x/c =  1.0000   62

   3   rms: 0.3399E-02   max: 0.2042E-01   D at   65  1
       a = 17.800      CL =  1.4785
      Cm = -0.0135     CD =  0.07373   =>   CDf =  0.00423    CDp =  0.06950

 Side 1  free  transition at x/c =  0.0137   30
 Side 2 forced transition at x/c =  1.0000   62

   4   rms: 0.4600E-03   max: 0.2175E-02   D at   77  2
       a = 17.800      CL =  1.4781
      Cm = -0.0134     CD =  0.07369   =>   CDf =  0.00423    CDp =  0.06947

 Side 1  free  transition at x/c =  0.0137   30
 Side 2 forced transition at x/c =  1.0000   62

   5   rms: 0.4445E-04   max: 0.2381E-03   D at   77  2
       a = 17.800      CL =  1.4781
      Cm = -0.0134     CD =  0.07369   =>   CDf =  0.00423    CDp =  0.06946
 plradd ia,ip,cpol          170           0  8.48699303E-04

 Point added to stored polar  1
 Point written to save file  polar_1.txt                                     
 Point written to dump file dump_1                                          
 Calculating wake trajectory ...
 Calculating source influence matrix ...

 Solving BL system ...

 Side 1  free  transition at x/c =  0.0137   30
 Side 2 forced transition at x/c =  1.0000   62

   1   rms: 0.2733E-01   max: 0.1204E+00   D at   64  1   RLX: 0.552
       a = 18.000      CL =  1.4769
      Cm = -0.0142     CD =  0.07596   =>   CDf =  0.00423    CDp =  0.07173

 Side 1  free  transition at x/c =  0.0136   30
 Side 2 forced transition at x/c =  1.0000   62

   2   rms: 0.1320E-01   max: 0.6162E-01   D at   64  1
       a = 18.000      CL =  1.4739
      Cm = -0.0148     CD =  0.07762   =>   CDf =  0.00418    CDp =  0.07344

 Side 1  free  transition at x/c =  0.0136   30
 Side 2 forced transition at x/c =  1.0000   62

   3   rms: 0.3811E-02   max: 0.2035E-01   D at   64  1
       a = 18.000      CL =  1.4712
      Cm = -0.0147     CD =  0.07758   =>   CDf =  0.00414    CDp =  0.07344

 Side 1  free  transition at x/c =  0.0136   30
 Side 2 forced transition at x/c =  1.0000   62

   4   rms: 0.4798E-03   max: 0.3058E-02   D at   77  2
       a = 18.000      CL =  1.4708
      Cm = -0.0147     CD =  0.07752   =>   CDf =  0.00414    CDp =  0.07339

 Side 1  free  transition at x/c =  0.0136   30
 Side 2 forced transition at x/c =  1.0000   62

   5   rms: 0.3886E-04   max: 0.2430E-03   D at   77  2
       a = 18.000      CL =  1.4707
      Cm = -0.0147     CD =  0.07752   =>   CDf =  0.00414    CDp =  0.07338
 plradd ia,ip,cpol          171           0  8.48699303E-04

 Point added to stored polar  1
 Point written to save file  polar_1.txt                                     
 Point written to dump file dump_1                                          
 Calculating wake trajectory ...
 Calculating source influence matrix ...

 Solving BL system ...

 Side 1  free  transition at x/c =  0.0136   30
 Side 2 forced transition at x/c =  1.0000   62

   1   rms: 0.2685E-01   max: 0.1194E+00   D at   63  1   RLX: 0.534
       a = 18.200      CL =  1.4695
      Cm = -0.0155     CD =  0.07978   =>   CDf =  0.00414    CDp =  0.07563

 Side 1  free  transition at x/c =  0.0135   30
 Side 2 forced transition at x/c =  1.0000   62

   2   rms: 0.1401E-01   max: 0.6739E-01   D at   63  1
       a = 18.200      CL =  1.4660
      Cm = -0.0162     CD =  0.08163   =>   CDf =  0.00410    CDp =  0.07754

 Side 1  free  transition at x/c =  0.0135   30
 Side 2 forced transition at x/c =  1.0000   62

   3   rms: 0.3768E-02   max: 0.1772E-01   D at   63  1
       a = 18.200      CL =  1.4632
      Cm = -0.0161     CD =  0.08155   =>   CDf =  0.00406    CDp =  0.07749

 Side 1  free  transition at x/c =  0.0135   30
 Side 2 forced transition at x/c =  1.0000   62

   4   rms: 0.4275E-03   max: 0.1964E-02   D at   77  2
       a = 18.200      CL =  1.4629
      Cm = -0.0161     CD =  0.08149   =>   CDf =  0.00405    CDp =  0.07744

 Side 1  free  transition at x/c =  0.0135   30
 Side 2 forced transition at x/c =  1.0000   62

   5   rms: 0.3394E-04   max: 0.1867E-03   D at   77  2
       a = 18.200      CL =  1.4628
      Cm = -0.0161     CD =  0.08148   =>   CDf =  0.00405    CDp =  0.07743
 plradd ia,ip,cpol          172           0  8.48699303E-04

 Point added to stored polar  1
 Point written to save file  polar_1.txt                                     
 Point written to dump file dump_1                                          
 Calculating wake trajectory ...
 Calculating source influence matrix ...

 Solving BL system ...

 Side 1  free  transition at x/c =  0.0135   30
 Side 2 forced transition at x/c =  1.0000   62

   1   rms: 0.2652E-01   max: 0.1199E+00   D at   62  1   RLX: 0.517
       a = 18.400      CL =  1.4614
      Cm = -0.0169     CD =  0.08375   =>   CDf =  0.00405    CDp =  0.07969

 Side 1  free  transition at x/c =  0.0134   30
 Side 2 forced transition at x/c =  1.0000   62

   2   rms: 0.1459E-01   max: 0.7197E-01   D at   62  1
       a = 18.400      CL =  1.4577
      Cm = -0.0176     CD =  0.08579   =>   CDf =  0.00401    CDp =  0.08178

 Side 1  free  transition at x/c =  0.0134   30
 Side 2 forced transition at x/c =  1.0000   62

   3   rms: 0.3696E-02   max: 0.1528E-01   D at   62  1
       a = 18.400      CL =  1.4549
      Cm = -0.0176     CD =  0.08564   =>   CDf =  0.00397    CDp =  0.08168

 Side 1  free  transition at x/c =  0.0134   30
 Side 2 forced transition at x/c =  1.0000   62

   4   rms: 0.4229E-03   max: 0.2169E-02   D at   78  2
       a = 18.400      CL =  1.4546
      Cm = -0.0175     CD =  0.08558   =>   CDf =  0.00396    CDp =  0.08161

 Side 1  free  transition at x/c =  0.0134   30
 Side 2 forced transition at x/c =  1.0000   62

   5   rms: 0.3487E-04   max: 0.1894E-03   D at   78  2
       a = 18.400      CL =  1.4545
      Cm = -0.0175     CD =  0.08557   =>   CDf =  0.00396    CDp =  0.08161
 plradd ia,ip,cpol          173           0  8.48699303E-04

 Point added to stored polar  1
 Point written to save file  polar_1.txt                                     
 Point written to dump file dump_1                                          
 Calculating wake trajectory ...
 Calculating source influence matrix ...

 Solving BL system ...

 Side 1  free  transition at x/c =  0.0134   30
 Side 2 forced transition at x/c =  1.0000   62

   1   rms: 0.2617E-01   max: 0.1198E+00   D at   61  1   RLX: 0.501
       a = 18.600      CL =  1.4531
      Cm = -0.0184     CD =  0.08783   =>   CDf =  0.00397    CDp =  0.08386

 Side 1  free  transition at x/c =  0.0133   30
 Side 2 forced transition at x/c =  1.0000   62

   2   rms: 0.1526E-01   max: 0.7645E-01   D at   61  1
       a = 18.600      CL =  1.4491
      Cm = -0.0193     CD =  0.09008   =>   CDf =  0.00352    CDp =  0.08656

 Side 1  free  transition at x/c =  0.0133   31
 Side 2 forced transition at x/c =  1.0000   61
 idif Ue xi dudx           1  8.57161358E-02  8.79728794E-03   9.7434731    
 Uenew xinew           2  4.13498463E-04  4.24385071E-05

   3   rms: 0.1072E-01   max: -.1724E+00   T at    2  1
       a = 18.600      CL =  1.4461
      Cm = -0.0192     CD =  0.08989   =>   CDf =  0.00427    CDp =  0.08561

 Side 1  free  transition at x/c =  0.0133   30
 Side 2 forced transition at x/c =  1.0000   62

   4   rms: 0.2252E-02   max: -.3769E-01   D at    2  2
       a = 18.600      CL =  1.4458
      Cm = -0.0191     CD =  0.08981   =>   CDf =  0.00388    CDp =  0.08593

 Side 1  free  transition at x/c =  0.0133   30
 Side 2 forced transition at x/c =  1.0000   62

   5   rms: 0.1606E-03   max: 0.1748E-02   D at    4  2
       a = 18.600      CL =  1.4457
      Cm = -0.0191     CD =  0.08980   =>   CDf =  0.00388    CDp =  0.08592

 Side 1  free  transition at x/c =  0.0133   30
 Side 2 forced transition at x/c =  1.0000   62

   6   rms: 0.2908E-05   max: -.2024E-04   C at   62  2
       a = 18.600      CL =  1.4457
      Cm = -0.0191     CD =  0.08980   =>   CDf =  0.00388    CDp =  0.08592
 plradd ia,ip,cpol          174           0  8.48699303E-04

 Point added to stored polar  1
 Point written to save file  polar_1.txt                                     
 Point written to dump file dump_1                                          
 Calculating wake trajectory ...
 Calculating source influence matrix ...

 Solving BL system ...

 Side 1  free  transition at x/c =  0.0133   30
 Side 2 forced transition at x/c =  1.0000   62

   1   rms: 0.2637E-01   max: 0.1237E+00   D at   59  1   RLX: 0.485
       a = 18.800      CL =  1.4440
      Cm = -0.0200     CD =  0.09211   =>   CDf =  0.00348    CDp =  0.08863

 Side 1  free  transition at x/c =  0.0132   31
 Side 2 forced transition at x/c =  1.0000   61

   2   rms: 0.1645E-01   max: 0.8262E-01   D at   61  1
       a = 18.800      CL =  1.4393
      Cm = -0.0210     CD =  0.09460   =>   CDf =  0.00384    CDp =  0.09076

 Side 1  free  transition at x/c =  0.0132   31
 Side 2 forced transition at x/c =  1.0000   61

   3   rms: 0.3997E-02   max: 0.1627E-01   D at   77  2
       a = 18.800      CL =  1.4363
      Cm = -0.0209     CD =  0.09433   =>   CDf =  0.00379    CDp =  0.09054

 Side 1  free  transition at x/c =  0.0132   31
 Side 2 forced transition at x/c =  1.0000   61

   4   rms: 0.4732E-03   max: 0.4021E-02   D at   77  2
       a = 18.800      CL =  1.4359
      Cm = -0.0208     CD =  0.09425   =>   CDf =  0.00379    CDp =  0.09046

 Side 1  free  transition at x/c =  0.0132   31
 Side 2 forced transition at x/c =  1.0000   61

   5   rms: 0.3675E-04   max: 0.3018E-03   D at   77  2
       a = 18.800      CL =  1.4359
      Cm = -0.0208     CD =  0.09424   =>   CDf =  0.00379    CDp =  0.09045
 plradd ia,ip,cpol          175           0  8.48699303E-04

 Point added to stored polar  1
 Point written to save file  polar_1.txt                                     
 Point written to dump file dump_1                                          
 Calculating wake trajectory ...
 Calculating source influence matrix ...

 Solving BL system ...

 Side 1  free  transition at x/c =  0.0132   31
 Side 2 forced transition at x/c =  1.0000   61

   1   rms: 0.2555E-01   max: 0.1215E+00   D at   59  1   RLX: 0.471
       a = 19.000      CL =  1.4343
      Cm = -0.0217     CD =  0.09649   =>   CDf =  0.00379    CDp =  0.09270

 Side 1  free  transition at x/c =  0.0131   31
 Side 2 forced transition at x/c =  1.0000   61

   2   rms: 0.1623E-01   max: 0.8424E-01   D at   60  1
       a = 19.000      CL =  1.4296
      Cm = -0.0228     CD =  0.09910   =>   CDf =  0.00375    CDp =  0.09534

 Side 1  free  transition at x/c =  0.0131   31
 Side 2 forced transition at x/c =  1.0000   61

   3   rms: 0.3931E-02   max: 0.1488E-01   D at   77  2
       a = 19.000      CL =  1.4267
      Cm = -0.0226     CD =  0.09878   =>   CDf =  0.00371    CDp =  0.09507

 Side 1  free  transition at x/c =  0.0131   31
 Side 2 forced transition at x/c =  1.0000   61

   4   rms: 0.4145E-03   max: 0.1937E-02   D at   77  2
       a = 19.000      CL =  1.4263
      Cm = -0.0226     CD =  0.09868   =>   CDf =  0.00370    CDp =  0.09498

 Side 1  free  transition at x/c =  0.0131   31
 Side 2 forced transition at x/c =  1.0000   61

   5   rms: 0.3224E-04   max: 0.1820E-03   D at   77  2
       a = 19.000      CL =  1.4263
      Cm = -0.0226     CD =  0.09867   =>   CDf =  0.00370    CDp =  0.09497
 plradd ia,ip,cpol          176           0  8.48699303E-04

 Point added to stored polar  1
 Point written to save file  polar_1.txt                                     
 Point written to dump file dump_1                                          

.OPERva   c>  
 XFOIL   c>  
 XFOIL   c>  